version 3
run General-0-20221029-17:52:36-61360
attr configname General
attr datetime 20221029-17:52:36
attr datetimef 20221029-175236
attr experiment General
attr inifile n100-gw.ini
attr iterationvars "$0=\"avg\""
attr iterationvarsd avg
attr iterationvarsf avg-
attr measurement "$0=\"avg\""
attr network floraext.simulations.LoRaRelayNetworkTest
attr processid 61360
attr repetition 0
attr replication #0
attr resultdir results
attr runnumber 0
attr seedset 0
config image-path ../../../inet4.4/images
config network floraext.simulations.LoRaRelayNetworkTest
config output-vector-file ../results/n100-gw1-s0.ini.vec
config **.maxTransmissionDuration 4s
config **.energyDetection -110dBm
config **.vector-recording true
config rng-class cMersenneTwister
config **.loRaGW[*].numUdpApps 1
config **.loRaGW[0].packetForwarder.localPort 2000
config **.loRaGW[0].packetForwarder.destPort 1000
config **.loRaGW[0].packetForwarder.destAddresses "\"networkServer\""
config **.loRaGW[0].packetForwarder.indexNumber 0
config **.loRaRelay[*].numUdpApps 1
config **.networkServer.numApps 1
config **.networkServer.**.evaluateADRinServer true
config **.networkServer.app[0].typename NetworkServerApp
config **.networkServer.app[0].destAddresses "\"loRaGW[0]\""
config **.networkServer.app[0].destPort 2000
config **.networkServer.app[0].localPort 1000
config **.networkServer.app[0].adrMethod "\"avg\""
config **.numberOfPacketsToSend 0
config sim-time-limit 1d
config simtime-resolution -11
config repeat 5
config **.timeToFirstPacket exponential(1000s)
config **.timeToNextPacket exponential(1000s)
config **.alohaChannelModel false
config **.loRaNodes[*].**.initFromDisplayString false
config **.loRaNodes[*].**.evaluateADRinNode true
config **.loRaNodes[*].**initialLoRaBW "125 kHz"
config **.loRaNodes[*].**initialLoRaCR 4
config **.loRaNodes[*].numApps 1
config **.loRaNodes[*].app[0].typename SimpleLoRaApp
config **.LoRaGWNic.radio.iAmGateway true
config **.loRaGW[*].**.initFromDisplayString false
config **.loRaRelay[*].**.initFromDisplayString false
config **.loRaNodes[*].LoRaNic.radio.energyConsumer.typename LoRaEnergyConsumer
config **.loRaNodes[*].**.energySourceModule "\"^.IdealEpEnergyStorage\""
config **.loRaNodes[*].LoRaNic.radio.energyConsumer.configFile "xmldoc(\"../energyConsumptionParameters.xml\")"
config **.sigma 3.57
config **.constraintAreaMinX 0m
config **.constraintAreaMinY 0m
config **.constraintAreaMinZ 0m
config **.constraintAreaMaxZ 0m
config LoRaNetworkTest.**.radio.separateTransmissionParts false
config LoRaNetworkTest.**.radio.separateReceptionParts false
config **.ipv4Delayer.config "xmldoc(\"../cloudDelays.xml\")"
config **.radio.radioMediumModule "\"LoRaMedium\""
config **.LoRaMedium.pathLossType "\"LoRaLogNormalShadowing\""
config **.minInterferenceTime 0s
config **.displayAddresses false
config **.numberOfNodes 1
config **.numberOfGateways 1
config **.numberOfRelays 1
config **.constraintAreaMaxX 2376.0m
config **.constraintAreaMaxY 1090.0m
config **.loRaGW[0].**.initialX 300.00m
config **.loRaGW[0].**.initialY 344.00m
config **.loRaRelay[0].**.initialX 475.00m
config **.loRaRelay[0].**.initialY 475.00m
config output-scalar-file ../results/n100-gw1-s0.ini.sca
config **.loRaNodes[0].**.initialX 800.63m
config **.loRaNodes[0].**.initialY 500.08m
config **.loRaNodes[0].**initialLoRaSF 12
config **.loRaNodes[0].**initialLoRaTP 10dBm

par LoRaRelayNetworkTest.networkServer.ethg$o[0].channel typename "\"inet.node.ethernet.Eth1G\""
par LoRaRelayNetworkTest.networkServer.ethg$o[0].channel disabled false
attr mutable ""
par LoRaRelayNetworkTest.networkServer.ethg$o[0].channel delay 5e-08s
attr mutable ""
attr unit s
par LoRaRelayNetworkTest.networkServer.ethg$o[0].channel datarate 1e+09bps
attr mutable ""
attr unit bps
par LoRaRelayNetworkTest.networkServer.ethg$o[0].channel ber 0
attr mutable ""
par LoRaRelayNetworkTest.networkServer.ethg$o[0].channel per 0
attr mutable ""
par LoRaRelayNetworkTest.networkServer.ethg$o[0].channel length 10m
attr unit m
par LoRaRelayNetworkTest.nsRouter.ethg$o[0].channel typename "\"inet.node.ethernet.Eth1G\""
par LoRaRelayNetworkTest.nsRouter.ethg$o[0].channel disabled false
attr mutable ""
par LoRaRelayNetworkTest.nsRouter.ethg$o[0].channel delay 5e-08s
attr mutable ""
attr unit s
par LoRaRelayNetworkTest.nsRouter.ethg$o[0].channel datarate 1e+09bps
attr mutable ""
attr unit bps
par LoRaRelayNetworkTest.nsRouter.ethg$o[0].channel ber 0
attr mutable ""
par LoRaRelayNetworkTest.nsRouter.ethg$o[0].channel per 0
attr mutable ""
par LoRaRelayNetworkTest.nsRouter.ethg$o[0].channel length 10m
attr unit m
par LoRaRelayNetworkTest.nsRouter.pppg$o[0].channel typename "\"inet.node.ethernet.Eth1G\""
par LoRaRelayNetworkTest.nsRouter.pppg$o[0].channel disabled false
attr mutable ""
par LoRaRelayNetworkTest.nsRouter.pppg$o[0].channel delay 5e-08s
attr mutable ""
attr unit s
par LoRaRelayNetworkTest.nsRouter.pppg$o[0].channel datarate 1e+09bps
attr mutable ""
attr unit bps
par LoRaRelayNetworkTest.nsRouter.pppg$o[0].channel ber 0
attr mutable ""
par LoRaRelayNetworkTest.nsRouter.pppg$o[0].channel per 0
attr mutable ""
par LoRaRelayNetworkTest.nsRouter.pppg$o[0].channel length 10m
attr unit m
par LoRaRelayNetworkTest.internetCloud.pppg$o[0].channel typename "\"inet.node.ethernet.Eth1G\""
par LoRaRelayNetworkTest.internetCloud.pppg$o[0].channel disabled false
attr mutable ""
par LoRaRelayNetworkTest.internetCloud.pppg$o[0].channel delay 5e-08s
attr mutable ""
attr unit s
par LoRaRelayNetworkTest.internetCloud.pppg$o[0].channel datarate 1e+09bps
attr mutable ""
attr unit bps
par LoRaRelayNetworkTest.internetCloud.pppg$o[0].channel ber 0
attr mutable ""
par LoRaRelayNetworkTest.internetCloud.pppg$o[0].channel per 0
attr mutable ""
par LoRaRelayNetworkTest.internetCloud.pppg$o[0].channel length 10m
attr unit m
par LoRaRelayNetworkTest.internetCloud.pppg$o[1].channel typename "\"inet.node.ethernet.Eth1G\""
par LoRaRelayNetworkTest.internetCloud.pppg$o[1].channel disabled false
attr mutable ""
par LoRaRelayNetworkTest.internetCloud.pppg$o[1].channel delay 5e-08s
attr mutable ""
attr unit s
par LoRaRelayNetworkTest.internetCloud.pppg$o[1].channel datarate 1e+09bps
attr mutable ""
attr unit bps
par LoRaRelayNetworkTest.internetCloud.pppg$o[1].channel ber 0
attr mutable ""
par LoRaRelayNetworkTest.internetCloud.pppg$o[1].channel per 0
attr mutable ""
par LoRaRelayNetworkTest.internetCloud.pppg$o[1].channel length 10m
attr unit m
par LoRaRelayNetworkTest.gwRouter[0].pppg$o[0].channel typename "\"inet.node.ethernet.Eth1G\""
par LoRaRelayNetworkTest.gwRouter[0].pppg$o[0].channel disabled false
attr mutable ""
par LoRaRelayNetworkTest.gwRouter[0].pppg$o[0].channel delay 5e-08s
attr mutable ""
attr unit s
par LoRaRelayNetworkTest.gwRouter[0].pppg$o[0].channel datarate 1e+09bps
attr mutable ""
attr unit bps
par LoRaRelayNetworkTest.gwRouter[0].pppg$o[0].channel ber 0
attr mutable ""
par LoRaRelayNetworkTest.gwRouter[0].pppg$o[0].channel per 0
attr mutable ""
par LoRaRelayNetworkTest.gwRouter[0].pppg$o[0].channel length 10m
attr unit m
par LoRaRelayNetworkTest.gwRouter[0].ethg$o[0].channel typename "\"inet.node.ethernet.Eth1G\""
par LoRaRelayNetworkTest.gwRouter[0].ethg$o[0].channel disabled false
attr mutable ""
par LoRaRelayNetworkTest.gwRouter[0].ethg$o[0].channel delay 5e-08s
attr mutable ""
attr unit s
par LoRaRelayNetworkTest.gwRouter[0].ethg$o[0].channel datarate 1e+09bps
attr mutable ""
attr unit bps
par LoRaRelayNetworkTest.gwRouter[0].ethg$o[0].channel ber 0
attr mutable ""
par LoRaRelayNetworkTest.gwRouter[0].ethg$o[0].channel per 0
attr mutable ""
par LoRaRelayNetworkTest.gwRouter[0].ethg$o[0].channel length 10m
attr unit m
par LoRaRelayNetworkTest.loRaGW[0].ethg$o[0].channel typename "\"inet.node.ethernet.Eth1G\""
par LoRaRelayNetworkTest.loRaGW[0].ethg$o[0].channel disabled false
attr mutable ""
par LoRaRelayNetworkTest.loRaGW[0].ethg$o[0].channel delay 5e-08s
attr mutable ""
attr unit s
par LoRaRelayNetworkTest.loRaGW[0].ethg$o[0].channel datarate 1e+09bps
attr mutable ""
attr unit bps
par LoRaRelayNetworkTest.loRaGW[0].ethg$o[0].channel ber 0
attr mutable ""
par LoRaRelayNetworkTest.loRaGW[0].ethg$o[0].channel per 0
attr mutable ""
par LoRaRelayNetworkTest.loRaGW[0].ethg$o[0].channel length 10m
attr unit m
par LoRaRelayNetworkTest.loRaNodes[0].interfaceTable typename "\"inet.networklayer.common.InterfaceTable\""
par LoRaRelayNetworkTest.loRaNodes[0].interfaceTable displayAddresses false
par LoRaRelayNetworkTest.loRaNodes[0].mobility typename "\"inet.mobility.static.StationaryMobility\""
par LoRaRelayNetworkTest.loRaNodes[0].mobility subjectModule "\"^\""
par LoRaRelayNetworkTest.loRaNodes[0].mobility coordinateSystemModule "\"\""
par LoRaRelayNetworkTest.loRaNodes[0].mobility displayStringTextFormat "\"p: %p\\nv: %v\""
attr mutable ""
par LoRaRelayNetworkTest.loRaNodes[0].mobility updateDisplayString true
par LoRaRelayNetworkTest.loRaNodes[0].mobility constraintAreaMinX 0m
attr unit m
par LoRaRelayNetworkTest.loRaNodes[0].mobility constraintAreaMinY 0m
attr unit m
par LoRaRelayNetworkTest.loRaNodes[0].mobility constraintAreaMinZ 0m
attr unit m
par LoRaRelayNetworkTest.loRaNodes[0].mobility constraintAreaMaxX 2376m
attr unit m
par LoRaRelayNetworkTest.loRaNodes[0].mobility constraintAreaMaxY 1090m
attr unit m
par LoRaRelayNetworkTest.loRaNodes[0].mobility constraintAreaMaxZ 0m
attr unit m
par LoRaRelayNetworkTest.loRaNodes[0].mobility initialX 800.63m
attr unit m
par LoRaRelayNetworkTest.loRaNodes[0].mobility initialY 500.08m
attr unit m
par LoRaRelayNetworkTest.loRaNodes[0].mobility initialZ 0m
attr unit m
par LoRaRelayNetworkTest.loRaNodes[0].mobility initialLatitude "nan deg"
attr unit deg
par LoRaRelayNetworkTest.loRaNodes[0].mobility initialLongitude "nan deg"
attr unit deg
par LoRaRelayNetworkTest.loRaNodes[0].mobility initialAltitude 0m
attr unit m
par LoRaRelayNetworkTest.loRaNodes[0].mobility initialHeading 0deg
attr unit deg
par LoRaRelayNetworkTest.loRaNodes[0].mobility initialElevation 0deg
attr unit deg
par LoRaRelayNetworkTest.loRaNodes[0].mobility initialBank 0deg
attr unit deg
par LoRaRelayNetworkTest.loRaNodes[0].mobility initFromDisplayString false
par LoRaRelayNetworkTest.loRaNodes[0].mobility updateFromDisplayString true
par LoRaRelayNetworkTest.loRaNodes[0].LoRaNic.radioIn.channel typename "\"ned.IdealChannel\""
par LoRaRelayNetworkTest.loRaNodes[0].LoRaNic.mac.upperLayerOut.channel typename "\"ned.IdealChannel\""
par LoRaRelayNetworkTest.loRaNodes[0].LoRaNic.upperLayerIn.channel typename "\"ned.IdealChannel\""
par LoRaRelayNetworkTest.loRaNodes[0].LoRaNic.queue typename "\"inet.queueing.queue.DropTailQueue\""
par LoRaRelayNetworkTest.loRaNodes[0].LoRaNic.queue displayStringTextFormat "\"contains %p pk (%l) pushed %u\\npulled %o removed %r dropped %d\""
par LoRaRelayNetworkTest.loRaNodes[0].LoRaNic.queue packetCapacity -1
par LoRaRelayNetworkTest.loRaNodes[0].LoRaNic.queue dataCapacity -1b
attr unit b
par LoRaRelayNetworkTest.loRaNodes[0].LoRaNic.queue dropperClass "\"inet::queueing::PacketAtCollectionEndDropper\""
par LoRaRelayNetworkTest.loRaNodes[0].LoRaNic.queue comparatorClass "\"\""
par LoRaRelayNetworkTest.loRaNodes[0].LoRaNic.queue bufferModule "\"\""
scalar LoRaRelayNetworkTest.loRaNodes[0].LoRaNic.queue queueLength:last 0
attr autoWarmupFilter false
attr interpolationmode sample-hold
attr recordingmode last
attr source "warmup(atomic(constant0(packetPushEnded) + count(packetPushStarted) - count(packetPulled) - count(packetRemoved) - count(packetDropped)))"
attr title "queue length, last"
attr unit pk
scalar LoRaRelayNetworkTest.loRaNodes[0].LoRaNic.queue queueLength:max 0
attr autoWarmupFilter false
attr interpolationmode sample-hold
attr recordingmode max
attr source "warmup(atomic(constant0(packetPushEnded) + count(packetPushStarted) - count(packetPulled) - count(packetRemoved) - count(packetDropped)))"
attr title "queue length, max"
attr unit pk
scalar LoRaRelayNetworkTest.loRaNodes[0].LoRaNic.queue queueLength:timeavg 0
attr autoWarmupFilter false
attr interpolationmode sample-hold
attr recordingmode timeavg
attr source "warmup(atomic(constant0(packetPushEnded) + count(packetPushStarted) - count(packetPulled) - count(packetRemoved) - count(packetDropped)))"
attr title "queue length, timeavg"
attr unit pk
scalar LoRaRelayNetworkTest.loRaNodes[0].LoRaNic.queue queueBitLength:last 0
attr autoWarmupFilter false
attr interpolationmode sample-hold
attr recordingmode last
attr source "warmup(atomic(constant0(packetPushEnded) + sum(packetLength(packetPushStarted)) - sum(packetLength(packetPulled)) - sum(packetLength(packetRemoved)) - sum(packetLength(packetDropped))))"
attr title "queue bit length, last"
attr unit b
scalar LoRaRelayNetworkTest.loRaNodes[0].LoRaNic.queue queueBitLength:max 0
attr autoWarmupFilter false
attr interpolationmode sample-hold
attr recordingmode max
attr source "warmup(atomic(constant0(packetPushEnded) + sum(packetLength(packetPushStarted)) - sum(packetLength(packetPulled)) - sum(packetLength(packetRemoved)) - sum(packetLength(packetDropped))))"
attr title "queue bit length, max"
attr unit b
scalar LoRaRelayNetworkTest.loRaNodes[0].LoRaNic.queue queueBitLength:timeavg 0
attr autoWarmupFilter false
attr interpolationmode sample-hold
attr recordingmode timeavg
attr source "warmup(atomic(constant0(packetPushEnded) + sum(packetLength(packetPushStarted)) - sum(packetLength(packetPulled)) - sum(packetLength(packetRemoved)) - sum(packetLength(packetDropped))))"
attr title "queue bit length, timeavg"
attr unit b
statistic LoRaRelayNetworkTest.loRaNodes[0].LoRaNic.queue queueingTime:histogram
field count 2
field mean 0
field stddev 0
field min 0
field max 0
field sum 0
field sqrsum 0
attr interpolationmode none
attr recordingmode histogram
attr source queueingTime(packetPulled)
attr title "queueing times"
attr unit s
bin	-inf	0
bin	-0.5	0
bin	-0.48	0
bin	-0.46	0
bin	-0.44	0
bin	-0.42	0
bin	-0.4	0
bin	-0.38	0
bin	-0.36	0
bin	-0.34	0
bin	-0.32	0
bin	-0.3	0
bin	-0.28	0
bin	-0.26	0
bin	-0.24	0
bin	-0.22	0
bin	-0.2	0
bin	-0.18	0
bin	-0.16	0
bin	-0.14	0
bin	-0.12	0
bin	-0.1	0
bin	-0.08	0
bin	-0.06	0
bin	-0.04	0
bin	-0.02	0
bin	0	2
bin	0.02	0
bin	0.04	0
bin	0.06	0
bin	0.08	0
bin	0.1	0
bin	0.12	0
bin	0.14	0
bin	0.16	0
bin	0.18	0
bin	0.2	0
bin	0.22	0
bin	0.24	0
bin	0.26	0
bin	0.28	0
bin	0.3	0
bin	0.32	0
bin	0.34	0
bin	0.36	0
bin	0.38	0
bin	0.4	0
bin	0.42	0
bin	0.44	0
bin	0.46	0
bin	0.48	0
bin	0.5	0
scalar LoRaRelayNetworkTest.loRaNodes[0].LoRaNic.queue outgoingPackets:count 2
attr recordingmode count
attr source packetPulled
attr title "outgoing packets, count"
attr unit pk
scalar LoRaRelayNetworkTest.loRaNodes[0].LoRaNic.queue outgoingPacketLengths:sum 160
attr interpolationmode none
attr recordingmode sum
attr source packetLength(packetPulled)
attr title "outgoing packet lengths, sum"
attr unit b
statistic LoRaRelayNetworkTest.loRaNodes[0].LoRaNic.queue outgoingPacketLengths:histogram
field count 2
field mean 80
field stddev 0
field min 80
field max 80
field sum 160
field sqrsum 12800
attr interpolationmode none
attr recordingmode histogram
attr source packetLength(packetPulled)
attr title "outgoing packet lengths"
attr unit b
bin	-inf	0
bin	79	0
bin	80	2
bin	81	0
statistic LoRaRelayNetworkTest.loRaNodes[0].LoRaNic.queue flowQueueingTime:histogram
field count 0
field mean -nan
field stddev nan
field min nan
field max nan
field sum 0
field sqrsum 0
attr interpolationmode none
attr recordingmode histogram
attr source queueingTime(demuxFlow(packetPulled))
attr title "flow queueing times"
attr unit s
bin	-inf	0
bin	0	0
bin	1	0
scalar LoRaRelayNetworkTest.loRaNodes[0].LoRaNic.queue incomingPackets:count 2
attr recordingmode count
attr source packetPushStarted
attr title "incoming packets, count"
attr unit pk
scalar LoRaRelayNetworkTest.loRaNodes[0].LoRaNic.queue incomingPacketLengths:sum 160
attr interpolationmode none
attr recordingmode sum
attr source packetLength(packetPushStarted)
attr title "incoming packet lengths, sum"
attr unit b
statistic LoRaRelayNetworkTest.loRaNodes[0].LoRaNic.queue incomingPacketLengths:histogram
field count 2
field mean 80
field stddev 0
field min 80
field max 80
field sum 160
field sqrsum 12800
attr interpolationmode none
attr recordingmode histogram
attr source packetLength(packetPushStarted)
attr title "incoming packet lengths"
attr unit b
bin	-inf	0
bin	79	0
bin	80	2
bin	81	0
scalar LoRaRelayNetworkTest.loRaNodes[0].LoRaNic.queue droppedPacketsQueueOverflow:count 0
attr interpolationmode none
attr recordingmode count
attr source packetDropReasonIsQueueOverflow(packetDropped)
attr title "dropped packets: queue overflow, count"
attr unit pk
scalar LoRaRelayNetworkTest.loRaNodes[0].LoRaNic.queue droppedPacketLengthsQueueOverflow:sum 0
attr interpolationmode none
attr recordingmode sum
attr source packetLength(packetDropReasonIsQueueOverflow(packetDropped))
attr title "dropped packet lengths: queue overflow, sum"
attr unit b
par LoRaRelayNetworkTest.loRaNodes[0].LoRaNic.mac typename "\"flora.LoRa.LoRaMac\""
par LoRaRelayNetworkTest.loRaNodes[0].LoRaNic.mac interfaceTableModule "\"LoRaRelayNetworkTest.loRaNodes[0].interfaceTable\""
par LoRaRelayNetworkTest.loRaNodes[0].LoRaNic.mac radioModule "\"^.radio\""
par LoRaRelayNetworkTest.loRaNodes[0].LoRaNic.mac address "\"0A-AA-00-00-00-01\""
attr mutable ""
par LoRaRelayNetworkTest.loRaNodes[0].LoRaNic.mac fcsMode "\"declared\""
attr enum declared,computed
par LoRaRelayNetworkTest.loRaNodes[0].LoRaNic.mac useAck true
par LoRaRelayNetworkTest.loRaNodes[0].LoRaNic.mac bitrate 250bps
attr unit bps
par LoRaRelayNetworkTest.loRaNodes[0].LoRaNic.mac headerLength 17B
attr unit B
par LoRaRelayNetworkTest.loRaNodes[0].LoRaNic.mac ackLength 14B
attr unit B
par LoRaRelayNetworkTest.loRaNodes[0].LoRaNic.mac sifsTime 1e-05s
attr unit s
par LoRaRelayNetworkTest.loRaNodes[0].LoRaNic.mac slotTime 2e-05s
attr unit s
par LoRaRelayNetworkTest.loRaNodes[0].LoRaNic.mac difsTime 5e-05s
attr unit s
par LoRaRelayNetworkTest.loRaNodes[0].LoRaNic.mac ackTimeout 0.44803s
attr unit s
par LoRaRelayNetworkTest.loRaNodes[0].LoRaNic.mac mtu 1500
par LoRaRelayNetworkTest.loRaNodes[0].LoRaNic.mac cwMin 31
par LoRaRelayNetworkTest.loRaNodes[0].LoRaNic.mac cwMax 1023
par LoRaRelayNetworkTest.loRaNodes[0].LoRaNic.mac cwMulticast 31
par LoRaRelayNetworkTest.loRaNodes[0].LoRaNic.mac retryLimit 7
scalar LoRaRelayNetworkTest.loRaNodes[0].LoRaNic.mac numRetry 0
scalar LoRaRelayNetworkTest.loRaNodes[0].LoRaNic.mac numSentWithoutRetry 0
scalar LoRaRelayNetworkTest.loRaNodes[0].LoRaNic.mac numGivenUp 0
scalar LoRaRelayNetworkTest.loRaNodes[0].LoRaNic.mac numSent 2
scalar LoRaRelayNetworkTest.loRaNodes[0].LoRaNic.mac numReceived 0
scalar LoRaRelayNetworkTest.loRaNodes[0].LoRaNic.mac numSentBroadcast 0
scalar LoRaRelayNetworkTest.loRaNodes[0].LoRaNic.mac numReceivedBroadcast 0
scalar LoRaRelayNetworkTest.loRaNodes[0].LoRaNic.mac packetDropIncorrectlyReceived:count 0
attr interpolationmode none
attr recordingmode count
attr source packetDropReasonIsIncorrectlyReceived(packetDropped)
attr title "packet drop: incorrectly received, count"
scalar LoRaRelayNetworkTest.loRaNodes[0].LoRaNic.mac packetDropIncorrectlyReceived:sum(packetBytes) 0
attr interpolationmode none
attr recordingmode sum(packetBytes)
attr source packetDropReasonIsIncorrectlyReceived(packetDropped)
attr title "packet drop: incorrectly received, sum(packetBytes)"
scalar LoRaRelayNetworkTest.loRaNodes[0].LoRaNic.mac packetDropNotAddressedToUs:count 0
attr interpolationmode none
attr recordingmode count
attr source packetDropReasonIsNotAddressedToUs(packetDropped)
attr title "packet drop: not addressed to us, count"
scalar LoRaRelayNetworkTest.loRaNodes[0].LoRaNic.mac packetDropNotAddressedToUs:sum(packetBytes) 0
attr interpolationmode none
attr recordingmode sum(packetBytes)
attr source packetDropReasonIsNotAddressedToUs(packetDropped)
attr title "packet drop: not addressed to us, sum(packetBytes)"
scalar LoRaRelayNetworkTest.loRaNodes[0].LoRaNic.mac packetDropQueueOverflow:count 0
attr interpolationmode none
attr recordingmode count
attr source packetDropReasonIsQueueOverflow(packetDropped)
attr title "packet drop: queue overflow, count"
scalar LoRaRelayNetworkTest.loRaNodes[0].LoRaNic.mac packetDropQueueOverflow:sum(packetBytes) 0
attr interpolationmode none
attr recordingmode sum(packetBytes)
attr source packetDropReasonIsQueueOverflow(packetDropped)
attr title "packet drop: queue overflow, sum(packetBytes)"
scalar LoRaRelayNetworkTest.loRaNodes[0].LoRaNic.mac packetDropRetryLimitReached:count 0
attr interpolationmode none
attr recordingmode count
attr source packetDropReasonIsRetryLimitReached(packetDropped)
attr title "packet drop: retry limit reached, count"
scalar LoRaRelayNetworkTest.loRaNodes[0].LoRaNic.mac packetDropRetryLimitReached:sum(packetBytes) 0
attr interpolationmode none
attr recordingmode sum(packetBytes)
attr source packetDropReasonIsRetryLimitReached(packetDropped)
attr title "packet drop: retry limit reached, sum(packetBytes)"
scalar LoRaRelayNetworkTest.loRaNodes[0].LoRaNic.mac linkBroken:count 0
attr interpolationmode none
attr recordingmode count
attr source linkBroken
attr title "link break, count"
par LoRaRelayNetworkTest.loRaNodes[0].LoRaNic.radio.antenna typename "\"inet.physicallayer.wireless.common.antenna.IsotropicAntenna\""
par LoRaRelayNetworkTest.loRaNodes[0].LoRaNic.radio.antenna mobilityModule "\"^.^.^.mobility\""
par LoRaRelayNetworkTest.loRaNodes[0].LoRaNic.radio.antenna numAntennas 1
par LoRaRelayNetworkTest.loRaNodes[0].LoRaNic.radio.transmitter typename "\"flora.LoRaPhy.LoRaTransmitter\""
par LoRaRelayNetworkTest.loRaNodes[0].LoRaNic.radio.transmitter preambleDuration 0.001s
attr unit s
par LoRaRelayNetworkTest.loRaNodes[0].LoRaNic.radio.transmitter headerLength 0b
attr unit b
par LoRaRelayNetworkTest.loRaNodes[0].LoRaNic.radio.transmitter bitrate 250000bps
attr unit bps
par LoRaRelayNetworkTest.loRaNodes[0].LoRaNic.radio.transmitter power 0.025118W
attr unit W
par LoRaRelayNetworkTest.loRaNodes[0].LoRaNic.radio.transmitter centerFrequency 8.68e+08Hz
attr unit Hz
par LoRaRelayNetworkTest.loRaNodes[0].LoRaNic.radio.transmitter bandwidth 250000Hz
attr unit Hz
par LoRaRelayNetworkTest.loRaNodes[0].LoRaNic.radio.transmitter modulation "\"LoRaModulation\""
scalar LoRaRelayNetworkTest.loRaNodes[0].LoRaNic.radio.transmitter LoRaTransmissionCreated:count 2
attr recordingmode count
attr source LoRaTransmissionCreated
par LoRaRelayNetworkTest.loRaNodes[0].LoRaNic.radio.receiver typename "\"flora.LoRaPhy.LoRaReceiver\""
par LoRaRelayNetworkTest.loRaNodes[0].LoRaNic.radio.receiver snirThreshold -8dB
attr unit dB
par LoRaRelayNetworkTest.loRaNodes[0].LoRaNic.radio.receiver snirThresholdMode "\"min\""
attr unit min,mean
par LoRaRelayNetworkTest.loRaNodes[0].LoRaNic.radio.receiver energyDetection -110dBm
attr unit dBm
par LoRaRelayNetworkTest.loRaNodes[0].LoRaNic.radio.receiver sensitivity -137dBm
attr unit dBm
par LoRaRelayNetworkTest.loRaNodes[0].LoRaNic.radio.receiver centerFrequency 8.68e+08Hz
attr unit Hz
par LoRaRelayNetworkTest.loRaNodes[0].LoRaNic.radio.receiver bandwidth 250000Hz
attr unit Hz
par LoRaRelayNetworkTest.loRaNodes[0].LoRaNic.radio.receiver modulation "\"BPSK\""
par LoRaRelayNetworkTest.loRaNodes[0].LoRaNic.radio.receiver alohaChannelModel false
scalar LoRaRelayNetworkTest.loRaNodes[0].LoRaNic.radio.receiver numCollisions 0
scalar LoRaRelayNetworkTest.loRaNodes[0].LoRaNic.radio.receiver rcvBelowSensitivity 0
scalar LoRaRelayNetworkTest.loRaNodes[0].LoRaNic.radio.receiver LoRaReceptionCollision:count 0
attr recordingmode count
attr source LoRaReceptionCollision
par LoRaRelayNetworkTest.loRaNodes[0].LoRaNic.radio.energyConsumer typename "\"flora.LoRaEnergyModules.LoRaEnergyConsumer\""
par LoRaRelayNetworkTest.loRaNodes[0].LoRaNic.radio.energyConsumer energySourceModule "\"^.IdealEpEnergyStorage\""
par LoRaRelayNetworkTest.loRaNodes[0].LoRaNic.radio.energyConsumer offPowerConsumption 0W
attr unit W
par LoRaRelayNetworkTest.loRaNodes[0].LoRaNic.radio.energyConsumer sleepPowerConsumption 0.001W
attr unit W
par LoRaRelayNetworkTest.loRaNodes[0].LoRaNic.radio.energyConsumer switchingPowerConsumption 0.001W
attr unit W
par LoRaRelayNetworkTest.loRaNodes[0].LoRaNic.radio.energyConsumer receiverIdlePowerConsumption 0.002W
attr unit W
par LoRaRelayNetworkTest.loRaNodes[0].LoRaNic.radio.energyConsumer receiverBusyPowerConsumption 0.005W
attr unit W
par LoRaRelayNetworkTest.loRaNodes[0].LoRaNic.radio.energyConsumer receiverReceivingPowerConsumption 0.01W
attr unit W
par LoRaRelayNetworkTest.loRaNodes[0].LoRaNic.radio.energyConsumer receiverReceivingPreamblePowerConsumption 0.01W
attr unit W
par LoRaRelayNetworkTest.loRaNodes[0].LoRaNic.radio.energyConsumer receiverReceivingHeaderPowerConsumption 0.01W
attr unit W
par LoRaRelayNetworkTest.loRaNodes[0].LoRaNic.radio.energyConsumer receiverReceivingDataPowerConsumption 0.01W
attr unit W
par LoRaRelayNetworkTest.loRaNodes[0].LoRaNic.radio.energyConsumer transmitterIdlePowerConsumption 0.002W
attr unit W
par LoRaRelayNetworkTest.loRaNodes[0].LoRaNic.radio.energyConsumer transmitterTransmittingPowerConsumption 0.1W
attr unit W
par LoRaRelayNetworkTest.loRaNodes[0].LoRaNic.radio.energyConsumer transmitterTransmittingPreamblePowerConsumption 0.1W
attr unit W
par LoRaRelayNetworkTest.loRaNodes[0].LoRaNic.radio.energyConsumer transmitterTransmittingHeaderPowerConsumption 0.1W
attr unit W
par LoRaRelayNetworkTest.loRaNodes[0].LoRaNic.radio.energyConsumer transmitterTransmittingDataPowerConsumption 0.1W
attr unit W
par LoRaRelayNetworkTest.loRaNodes[0].LoRaNic.radio.energyConsumer configFile "<root>...</root> at /home/fabio/omnetpp-6.0.1/samples/floraext/simulations/examples//../energyConsumptionParameters.xml:2"
scalar LoRaRelayNetworkTest.loRaNodes[0].LoRaNic.radio.energyConsumer totalEnergyConsumed 0.4143213888
par LoRaRelayNetworkTest.loRaNodes[0].LoRaNic.radio.IdealEpEnergyStorage typename "\"inet.power.storage.IdealEpEnergyStorage\""
scalar LoRaRelayNetworkTest.loRaNodes[0].LoRaNic.radio.IdealEpEnergyStorage residualEnergyCapacity:last -0.4143213888
attr interpolationmode linear
attr recordingmode last
attr source residualEnergyCapacityChanged
attr title "Residual energy capacity, last"
par LoRaRelayNetworkTest.loRaNodes[0].LoRaNic.radio typename "\"flora.LoRa.LoRaRadio\""
par LoRaRelayNetworkTest.loRaNodes[0].LoRaNic.radio radioMediumModule "\"LoRaMedium\""
par LoRaRelayNetworkTest.loRaNodes[0].LoRaNic.radio energySourceModule "\"^.IdealEpEnergyStorage\""
par LoRaRelayNetworkTest.loRaNodes[0].LoRaNic.radio initialRadioMode "\"off\""
attr enum off,sleep,receiver,transmitter,transceiver
par LoRaRelayNetworkTest.loRaNodes[0].LoRaNic.radio switchingTimes "\"ms 0 0 0 0 0 0 0 0 0 0 0 0 0 0 0 0 0 0 0 0 0 0 0 0 0\""
par LoRaRelayNetworkTest.loRaNodes[0].LoRaNic.radio sendRawBytes false
par LoRaRelayNetworkTest.loRaNodes[0].LoRaNic.radio separateTransmissionParts false
par LoRaRelayNetworkTest.loRaNodes[0].LoRaNic.radio separateReceptionParts false
par LoRaRelayNetworkTest.loRaNodes[0].LoRaNic.radio displayCommunicationRange false
par LoRaRelayNetworkTest.loRaNodes[0].LoRaNic.radio displayInterferenceRange false
par LoRaRelayNetworkTest.loRaNodes[0].LoRaNic.radio centerFrequency 8.68e+08Hz
attr unit Hz
par LoRaRelayNetworkTest.loRaNodes[0].LoRaNic.radio bandwidth 250000Hz
attr unit Hz
par LoRaRelayNetworkTest.loRaNodes[0].LoRaNic.radio iAmGateway false
scalar LoRaRelayNetworkTest.loRaNodes[0].LoRaNic.radio radioMode:count 12
attr interpolationmode sample-hold
attr recordingmode count
attr source radioModeChanged
attr title "Radio mode, count"
scalar LoRaRelayNetworkTest.loRaNodes[0].LoRaNic.radio receptionState:count 5
attr interpolationmode sample-hold
attr recordingmode count
attr source receptionStateChanged
attr title "Radio reception state, count"
scalar LoRaRelayNetworkTest.loRaNodes[0].LoRaNic.radio transmissionState:count 8
attr interpolationmode sample-hold
attr recordingmode count
attr source transmissionStateChanged
attr title "Radio transmission state, count"
statistic LoRaRelayNetworkTest.loRaNodes[0].LoRaNic.radio minSnir:histogram
field count 0
field mean -nan
field stddev nan
field min nan
field max nan
field sum 0
field sqrsum 0
attr recordingmode histogram
attr source minimumSnir(packetSentToUpper)
attr title "Min SNIR"
bin	-inf	0
bin	0	0
bin	1	0
statistic LoRaRelayNetworkTest.loRaNodes[0].LoRaNic.radio packetErrorRate:histogram
field count 0
field mean -nan
field stddev nan
field min nan
field max nan
field sum 0
field sqrsum 0
attr recordingmode histogram
attr source packetErrorRate(packetSentToUpper)
attr title "Packet error rate"
bin	-inf	0
bin	0	0
bin	1	0
statistic LoRaRelayNetworkTest.loRaNodes[0].LoRaNic.radio bitErrorRate:histogram
field count 0
field mean -nan
field stddev nan
field min nan
field max nan
field sum 0
field sqrsum 0
attr recordingmode histogram
attr source bitErrorRate(packetSentToUpper)
attr title "Bit error rate"
bin	-inf	0
bin	0	0
bin	1	0
statistic LoRaRelayNetworkTest.loRaNodes[0].LoRaNic.radio symbolErrorRate:histogram
field count 0
field mean -nan
field stddev nan
field min nan
field max nan
field sum 0
field sqrsum 0
attr recordingmode histogram
attr source symbolErrorRate(packetSentToUpper)
attr title "Symbol error rate"
bin	-inf	0
bin	0	0
bin	1	0
par LoRaRelayNetworkTest.loRaNodes[0].LoRaNic typename "\"flora.LoRa.LoRaNic\""
par LoRaRelayNetworkTest.loRaNodes[0].LoRaNic displayStringTextFormat "\"%a (%i)\\n%m\""
par LoRaRelayNetworkTest.loRaNodes[0].LoRaNic recordPcap false
par LoRaRelayNetworkTest.loRaNodes[0].LoRaNic numPcapRecorders 0
par LoRaRelayNetworkTest.loRaNodes[0].LoRaNic interfaceTableModule "\"LoRaRelayNetworkTest.loRaNodes[0].interfaceTable\""
par LoRaRelayNetworkTest.loRaNodes[0].LoRaNic energySourceModule "\"^.IdealEpEnergyStorage\""
par LoRaRelayNetworkTest.loRaNodes[0].LoRaNic protocol "\"\""
scalar LoRaRelayNetworkTest.loRaNodes[0].LoRaNic packetDropInterfaceDown:count 0
attr interpolationmode none
attr recordingmode count
attr source packetDropReasonIsInterfaceDown(packetDropped)
attr title "packet drops: interface down, count"
scalar LoRaRelayNetworkTest.loRaNodes[0].LoRaNic packetDropInterfaceDown:sum(packetBytes) 0
attr interpolationmode none
attr recordingmode sum(packetBytes)
attr source packetDropReasonIsInterfaceDown(packetDropped)
attr title "packet drops: interface down, sum(packetBytes)"
scalar LoRaRelayNetworkTest.loRaNodes[0].LoRaNic packetDropNoCarrier:count 0
attr interpolationmode none
attr recordingmode count
attr source packetDropReasonIsNoCarrier(packetDropped)
attr title "packet drops: no carrier, count"
scalar LoRaRelayNetworkTest.loRaNodes[0].LoRaNic packetDropNoCarrier:sum(packetBytes) 0
attr interpolationmode none
attr recordingmode sum(packetBytes)
attr source packetDropReasonIsNoCarrier(packetDropped)
attr title "packet drops: no carrier, sum(packetBytes)"
par LoRaRelayNetworkTest.loRaNodes[0].app[0] typename "\"flora.LoRaApp.SimpleLoRaApp\""
par LoRaRelayNetworkTest.loRaNodes[0].app[0] numberOfPacketsToSend 0
par LoRaRelayNetworkTest.loRaNodes[0].app[0] timeToFirstPacket exponential(1000s)
attr unit s
par LoRaRelayNetworkTest.loRaNodes[0].app[0] timeToNextPacket exponential(1000s)
attr unit s
par LoRaRelayNetworkTest.loRaNodes[0].app[0] initialLoRaTP 10dBm
attr unit dBm
par LoRaRelayNetworkTest.loRaNodes[0].app[0] initialLoRaCF 8.68e+08Hz
attr unit Hz
par LoRaRelayNetworkTest.loRaNodes[0].app[0] initialLoRaSF 12
par LoRaRelayNetworkTest.loRaNodes[0].app[0] initialLoRaBW 125000Hz
attr unit Hz
par LoRaRelayNetworkTest.loRaNodes[0].app[0] initialLoRaCR 4
par LoRaRelayNetworkTest.loRaNodes[0].app[0] initialUseHeader true
par LoRaRelayNetworkTest.loRaNodes[0].app[0] evaluateADRinNode true
par LoRaRelayNetworkTest.loRaNodes[0].app[0] dataSize 10B
attr unit B
scalar LoRaRelayNetworkTest.loRaNodes[0].app[0] positionX 800.63
scalar LoRaRelayNetworkTest.loRaNodes[0].app[0] positionY 500.08
scalar LoRaRelayNetworkTest.loRaNodes[0].app[0] finalTP 10
scalar LoRaRelayNetworkTest.loRaNodes[0].app[0] finalSF 12
scalar LoRaRelayNetworkTest.loRaNodes[0].app[0] sentPackets 2
scalar LoRaRelayNetworkTest.loRaNodes[0].app[0] receivedADRCommands 0
scalar LoRaRelayNetworkTest.loRaNodes[0].app[0] LoRa_AppPacketSent:count 2
attr recordingmode count
attr source LoRa_AppPacketSent
par LoRaRelayNetworkTest.loRaNodes[0] typename "\"flora.LoraNode.LoRaNode\""
par LoRaRelayNetworkTest.loRaNodes[0] numApps 1
par LoRaRelayNetworkTest.loRaNodes[0] deploymentType "\"\""
par LoRaRelayNetworkTest.loRaNodes[0] maxGatewayDistance 320
par LoRaRelayNetworkTest.loRaNodes[0] gatewayX 320
par LoRaRelayNetworkTest.loRaNodes[0] gatewayY 320
par LoRaRelayNetworkTest.loRaGW[0].ethg$i[0].channel typename "\"ned.IdealChannel\""
par LoRaRelayNetworkTest.loRaGW[0].eth[0].phys$o.channel typename "\"ned.IdealChannel\""
par LoRaRelayNetworkTest.loRaGW[0].at typename "\"inet.common.MessageDispatcher\""
par LoRaRelayNetworkTest.loRaGW[0].at displayStringTextFormat "\"processed %p pk (%l)\""
par LoRaRelayNetworkTest.loRaGW[0].at forwardServiceRegistration true
par LoRaRelayNetworkTest.loRaGW[0].at forwardProtocolRegistration true
par LoRaRelayNetworkTest.loRaGW[0].tn typename "\"inet.common.MessageDispatcher\""
par LoRaRelayNetworkTest.loRaGW[0].tn displayStringTextFormat "\"processed %p pk (%l)\""
par LoRaRelayNetworkTest.loRaGW[0].tn forwardServiceRegistration true
par LoRaRelayNetworkTest.loRaGW[0].tn forwardProtocolRegistration true
par LoRaRelayNetworkTest.loRaGW[0].nl typename "\"inet.common.MessageDispatcher\""
par LoRaRelayNetworkTest.loRaGW[0].nl displayStringTextFormat "\"processed %p pk (%l)\""
par LoRaRelayNetworkTest.loRaGW[0].nl forwardServiceRegistration true
par LoRaRelayNetworkTest.loRaGW[0].nl forwardProtocolRegistration true
par LoRaRelayNetworkTest.loRaGW[0].cb typename "\"inet.common.MessageDispatcher\""
par LoRaRelayNetworkTest.loRaGW[0].cb displayStringTextFormat "\"processed %p pk (%l)\""
par LoRaRelayNetworkTest.loRaGW[0].cb forwardServiceRegistration true
par LoRaRelayNetworkTest.loRaGW[0].cb forwardProtocolRegistration true
par LoRaRelayNetworkTest.loRaGW[0].bl typename "\"inet.common.MessageDispatcher\""
par LoRaRelayNetworkTest.loRaGW[0].bl displayStringTextFormat "\"processed %p pk (%l)\""
par LoRaRelayNetworkTest.loRaGW[0].bl forwardServiceRegistration true
par LoRaRelayNetworkTest.loRaGW[0].bl forwardProtocolRegistration true
par LoRaRelayNetworkTest.loRaGW[0].li typename "\"inet.common.MessageDispatcher\""
par LoRaRelayNetworkTest.loRaGW[0].li displayStringTextFormat "\"processed %p pk (%l)\""
par LoRaRelayNetworkTest.loRaGW[0].li forwardServiceRegistration true
par LoRaRelayNetworkTest.loRaGW[0].li forwardProtocolRegistration true
par LoRaRelayNetworkTest.loRaGW[0].interfaceTable typename "\"inet.networklayer.common.InterfaceTable\""
par LoRaRelayNetworkTest.loRaGW[0].interfaceTable displayAddresses false
par LoRaRelayNetworkTest.loRaGW[0].mobility typename "\"inet.mobility.static.StationaryMobility\""
par LoRaRelayNetworkTest.loRaGW[0].mobility subjectModule "\"^\""
par LoRaRelayNetworkTest.loRaGW[0].mobility coordinateSystemModule "\"\""
par LoRaRelayNetworkTest.loRaGW[0].mobility displayStringTextFormat "\"p: %p\\nv: %v\""
attr mutable ""
par LoRaRelayNetworkTest.loRaGW[0].mobility updateDisplayString true
par LoRaRelayNetworkTest.loRaGW[0].mobility constraintAreaMinX 0m
attr unit m
par LoRaRelayNetworkTest.loRaGW[0].mobility constraintAreaMinY 0m
attr unit m
par LoRaRelayNetworkTest.loRaGW[0].mobility constraintAreaMinZ 0m
attr unit m
par LoRaRelayNetworkTest.loRaGW[0].mobility constraintAreaMaxX 2376m
attr unit m
par LoRaRelayNetworkTest.loRaGW[0].mobility constraintAreaMaxY 1090m
attr unit m
par LoRaRelayNetworkTest.loRaGW[0].mobility constraintAreaMaxZ 0m
attr unit m
par LoRaRelayNetworkTest.loRaGW[0].mobility initialX 300m
attr unit m
par LoRaRelayNetworkTest.loRaGW[0].mobility initialY 344m
attr unit m
par LoRaRelayNetworkTest.loRaGW[0].mobility initialZ 0m
attr unit m
par LoRaRelayNetworkTest.loRaGW[0].mobility initialLatitude "nan deg"
attr unit deg
par LoRaRelayNetworkTest.loRaGW[0].mobility initialLongitude "nan deg"
attr unit deg
par LoRaRelayNetworkTest.loRaGW[0].mobility initialAltitude 0m
attr unit m
par LoRaRelayNetworkTest.loRaGW[0].mobility initialHeading 0deg
attr unit deg
par LoRaRelayNetworkTest.loRaGW[0].mobility initialElevation 0deg
attr unit deg
par LoRaRelayNetworkTest.loRaGW[0].mobility initialBank 0deg
attr unit deg
par LoRaRelayNetworkTest.loRaGW[0].mobility initFromDisplayString false
par LoRaRelayNetworkTest.loRaGW[0].mobility updateFromDisplayString true
par LoRaRelayNetworkTest.loRaGW[0].LoRaGWNic.radioIn.channel typename "\"ned.IdealChannel\""
par LoRaRelayNetworkTest.loRaGW[0].LoRaGWNic.mac.upperLayerOut.channel typename "\"ned.IdealChannel\""
par LoRaRelayNetworkTest.loRaGW[0].LoRaGWNic.upperLayerIn.channel typename "\"ned.IdealChannel\""
par LoRaRelayNetworkTest.loRaGW[0].LoRaGWNic.mac typename "\"flora.LoRa.LoRaGWMac\""
par LoRaRelayNetworkTest.loRaGW[0].LoRaGWNic.mac interfaceTableModule "\"LoRaRelayNetworkTest.loRaGW[0].interfaceTable\""
par LoRaRelayNetworkTest.loRaGW[0].LoRaGWNic.mac radioModule "\"^.radio\""
par LoRaRelayNetworkTest.loRaGW[0].LoRaGWNic.mac address "\"0A-AA-00-00-00-02\""
attr mutable ""
par LoRaRelayNetworkTest.loRaGW[0].LoRaGWNic.mac queueModule "\"\""
par LoRaRelayNetworkTest.loRaGW[0].LoRaGWNic.mac maxQueueSize -1
par LoRaRelayNetworkTest.loRaGW[0].LoRaGWNic.mac prioritizeByUP false
par LoRaRelayNetworkTest.loRaGW[0].LoRaGWNic.mac useAck true
par LoRaRelayNetworkTest.loRaGW[0].LoRaGWNic.mac headerLength 8B
attr unit B
par LoRaRelayNetworkTest.loRaGW[0].LoRaGWNic.mac ackLength 8B
attr unit B
par LoRaRelayNetworkTest.loRaGW[0].LoRaGWNic.mac sifsTime 1e-05s
attr unit s
par LoRaRelayNetworkTest.loRaGW[0].LoRaGWNic.mac slotTime 2e-05s
attr unit s
par LoRaRelayNetworkTest.loRaGW[0].LoRaGWNic.mac difsTime 5e-05s
attr unit s
par LoRaRelayNetworkTest.loRaGW[0].LoRaGWNic.mac mtu 1500
par LoRaRelayNetworkTest.loRaGW[0].LoRaGWNic.mac cwMin 31
par LoRaRelayNetworkTest.loRaGW[0].LoRaGWNic.mac cwMax 1023
par LoRaRelayNetworkTest.loRaGW[0].LoRaGWNic.mac cwMulticast 31
par LoRaRelayNetworkTest.loRaGW[0].LoRaGWNic.mac retryLimit 7
scalar LoRaRelayNetworkTest.loRaGW[0].LoRaGWNic.mac GW_forwardedDown 0
scalar LoRaRelayNetworkTest.loRaGW[0].LoRaGWNic.mac GW_droppedDC 0
par LoRaRelayNetworkTest.loRaGW[0].LoRaGWNic.radio.antenna typename "\"inet.physicallayer.wireless.common.antenna.IsotropicAntenna\""
par LoRaRelayNetworkTest.loRaGW[0].LoRaGWNic.radio.antenna mobilityModule "\"^.^.^.mobility\""
par LoRaRelayNetworkTest.loRaGW[0].LoRaGWNic.radio.antenna numAntennas 1
par LoRaRelayNetworkTest.loRaGW[0].LoRaGWNic.radio.transmitter typename "\"flora.LoRaPhy.LoRaTransmitter\""
par LoRaRelayNetworkTest.loRaGW[0].LoRaGWNic.radio.transmitter preambleDuration 0.001s
attr unit s
par LoRaRelayNetworkTest.loRaGW[0].LoRaGWNic.radio.transmitter headerLength 0b
attr unit b
par LoRaRelayNetworkTest.loRaGW[0].LoRaGWNic.radio.transmitter bitrate 250000bps
attr unit bps
par LoRaRelayNetworkTest.loRaGW[0].LoRaGWNic.radio.transmitter power 0.00224W
attr unit W
par LoRaRelayNetworkTest.loRaGW[0].LoRaGWNic.radio.transmitter centerFrequency 2.45e+09Hz
attr unit Hz
par LoRaRelayNetworkTest.loRaGW[0].LoRaGWNic.radio.transmitter bandwidth 250000Hz
attr unit Hz
par LoRaRelayNetworkTest.loRaGW[0].LoRaGWNic.radio.transmitter modulation "\"LoRaModulation\""
scalar LoRaRelayNetworkTest.loRaGW[0].LoRaGWNic.radio.transmitter LoRaTransmissionCreated:count 0
attr recordingmode count
attr source LoRaTransmissionCreated
par LoRaRelayNetworkTest.loRaGW[0].LoRaGWNic.radio.receiver typename "\"flora.LoRaPhy.LoRaReceiver\""
par LoRaRelayNetworkTest.loRaGW[0].LoRaGWNic.radio.receiver snirThreshold -8dB
attr unit dB
par LoRaRelayNetworkTest.loRaGW[0].LoRaGWNic.radio.receiver snirThresholdMode "\"min\""
attr unit min,mean
par LoRaRelayNetworkTest.loRaGW[0].LoRaGWNic.radio.receiver energyDetection -110dBm
attr unit dBm
par LoRaRelayNetworkTest.loRaGW[0].LoRaGWNic.radio.receiver sensitivity -100dBm
attr unit dBm
par LoRaRelayNetworkTest.loRaGW[0].LoRaGWNic.radio.receiver centerFrequency 2.45e+09Hz
attr unit Hz
par LoRaRelayNetworkTest.loRaGW[0].LoRaGWNic.radio.receiver bandwidth 250000Hz
attr unit Hz
par LoRaRelayNetworkTest.loRaGW[0].LoRaGWNic.radio.receiver modulation "\"BPSK\""
par LoRaRelayNetworkTest.loRaGW[0].LoRaGWNic.radio.receiver alohaChannelModel false
scalar LoRaRelayNetworkTest.loRaGW[0].LoRaGWNic.radio.receiver numCollisions 0
scalar LoRaRelayNetworkTest.loRaGW[0].LoRaGWNic.radio.receiver rcvBelowSensitivity 1
scalar LoRaRelayNetworkTest.loRaGW[0].LoRaGWNic.radio.receiver LoRaReceptionCollision:count 0
attr recordingmode count
attr source LoRaReceptionCollision
par LoRaRelayNetworkTest.loRaGW[0].LoRaGWNic.radio typename "\"flora.LoRa.LoRaGWRadio\""
par LoRaRelayNetworkTest.loRaGW[0].LoRaGWNic.radio radioMediumModule "\"LoRaMedium\""
par LoRaRelayNetworkTest.loRaGW[0].LoRaGWNic.radio energySourceModule "\"\""
par LoRaRelayNetworkTest.loRaGW[0].LoRaGWNic.radio initialRadioMode "\"off\""
attr enum off,sleep,receiver,transmitter,transceiver
par LoRaRelayNetworkTest.loRaGW[0].LoRaGWNic.radio switchingTimes "\"ms 0 0 0 0 0 0 0 0 0 0 0 0 0 0 0 0 0 0 0 0 0 0 0 0 0\""
par LoRaRelayNetworkTest.loRaGW[0].LoRaGWNic.radio sendRawBytes false
par LoRaRelayNetworkTest.loRaGW[0].LoRaGWNic.radio separateTransmissionParts false
par LoRaRelayNetworkTest.loRaGW[0].LoRaGWNic.radio separateReceptionParts false
par LoRaRelayNetworkTest.loRaGW[0].LoRaGWNic.radio displayCommunicationRange false
par LoRaRelayNetworkTest.loRaGW[0].LoRaGWNic.radio displayInterferenceRange false
par LoRaRelayNetworkTest.loRaGW[0].LoRaGWNic.radio centerFrequency 2.45e+09Hz
attr unit Hz
par LoRaRelayNetworkTest.loRaGW[0].LoRaGWNic.radio bandwidth 250000Hz
attr unit Hz
par LoRaRelayNetworkTest.loRaGW[0].LoRaGWNic.radio iAmGateway true
scalar LoRaRelayNetworkTest.loRaGW[0].LoRaGWNic.radio "DER - Data Extraction Rate" 0.75
scalar LoRaRelayNetworkTest.loRaGW[0].LoRaGWNic.radio LoRaGWRadioReceptionFinishedCorrect:count 3
attr recordingmode count
attr source LoRaGWRadioReceptionFinishedCorrect
scalar LoRaRelayNetworkTest.loRaGW[0].LoRaGWNic.radio LoRaGWRadioReceptionStarted:count 4
attr recordingmode count
attr source LoRaGWRadioReceptionStarted
scalar LoRaRelayNetworkTest.loRaGW[0].LoRaGWNic.radio radioMode:count 3
attr interpolationmode sample-hold
attr recordingmode count
attr source radioModeChanged
attr title "Radio mode, count"
scalar LoRaRelayNetworkTest.loRaGW[0].LoRaGWNic.radio receptionState:count 1
attr interpolationmode sample-hold
attr recordingmode count
attr source receptionStateChanged
attr title "Radio reception state, count"
scalar LoRaRelayNetworkTest.loRaGW[0].LoRaGWNic.radio transmissionState:count 1
attr interpolationmode sample-hold
attr recordingmode count
attr source transmissionStateChanged
attr title "Radio transmission state, count"
statistic LoRaRelayNetworkTest.loRaGW[0].LoRaGWNic.radio minSnir:histogram
field count 6
field mean 14.839706844187
field stddev 12.361273548632
field min 1.7715097133214
field max 29.305893564184
field sum 89.038241065122
field sqrsum 2085.306814049
attr recordingmode histogram
attr source minimumSnir(packetSentToUpper)
attr title "Min SNIR"
bin	-inf	0
bin	0	0
bin	0.5	0
bin	1	0
bin	1.5	2
bin	2	0
bin	2.5	0
bin	3	0
bin	3.5	0
bin	4	0
bin	4.5	0
bin	5	0
bin	5.5	0
bin	6	0
bin	6.5	0
bin	7	0
bin	7.5	0
bin	8	0
bin	8.5	0
bin	9	0
bin	9.5	0
bin	10	0
bin	10.5	0
bin	11	0
bin	11.5	0
bin	12	0
bin	12.5	0
bin	13	2
bin	13.5	0
bin	14	0
bin	14.5	0
bin	15	0
bin	15.5	0
bin	16	0
bin	16.5	0
bin	17	0
bin	17.5	0
bin	18	0
bin	18.5	0
bin	19	0
bin	19.5	0
bin	20	0
bin	20.5	0
bin	21	0
bin	21.5	0
bin	22	0
bin	22.5	0
bin	23	0
bin	23.5	0
bin	24	0
bin	24.5	0
bin	25	0
bin	25.5	0
bin	26	0
bin	26.5	0
bin	27	0
bin	27.5	0
bin	28	0
bin	28.5	0
bin	29	2
bin	29.5	0
bin	30	0
bin	30.5	0
bin	31	0
bin	31.5	0
bin	32	0
bin	32.5	0
bin	33	0
bin	33.5	0
bin	34	0
bin	34.5	0
bin	35	0
bin	35.5	0
bin	36	0
bin	36.5	0
statistic LoRaRelayNetworkTest.loRaGW[0].LoRaGWNic.radio packetErrorRate:histogram
field count 6
field mean 0
field stddev 0
field min 0
field max 0
field sum 0
field sqrsum 0
attr recordingmode histogram
attr source packetErrorRate(packetSentToUpper)
attr title "Packet error rate"
bin	-inf	0
bin	-0.5	0
bin	-0.48	0
bin	-0.46	0
bin	-0.44	0
bin	-0.42	0
bin	-0.4	0
bin	-0.38	0
bin	-0.36	0
bin	-0.34	0
bin	-0.32	0
bin	-0.3	0
bin	-0.28	0
bin	-0.26	0
bin	-0.24	0
bin	-0.22	0
bin	-0.2	0
bin	-0.18	0
bin	-0.16	0
bin	-0.14	0
bin	-0.12	0
bin	-0.1	0
bin	-0.08	0
bin	-0.06	0
bin	-0.04	0
bin	-0.02	0
bin	0	6
bin	0.02	0
bin	0.04	0
bin	0.06	0
bin	0.08	0
bin	0.1	0
bin	0.12	0
bin	0.14	0
bin	0.16	0
bin	0.18	0
bin	0.2	0
bin	0.22	0
bin	0.24	0
bin	0.26	0
bin	0.28	0
bin	0.3	0
bin	0.32	0
bin	0.34	0
bin	0.36	0
bin	0.38	0
bin	0.4	0
bin	0.42	0
bin	0.44	0
bin	0.46	0
bin	0.48	0
bin	0.5	0
statistic LoRaRelayNetworkTest.loRaGW[0].LoRaGWNic.radio bitErrorRate:histogram
field count 6
field mean 0
field stddev 0
field min 0
field max 0
field sum 0
field sqrsum 0
attr recordingmode histogram
attr source bitErrorRate(packetSentToUpper)
attr title "Bit error rate"
bin	-inf	0
bin	-0.5	0
bin	-0.48	0
bin	-0.46	0
bin	-0.44	0
bin	-0.42	0
bin	-0.4	0
bin	-0.38	0
bin	-0.36	0
bin	-0.34	0
bin	-0.32	0
bin	-0.3	0
bin	-0.28	0
bin	-0.26	0
bin	-0.24	0
bin	-0.22	0
bin	-0.2	0
bin	-0.18	0
bin	-0.16	0
bin	-0.14	0
bin	-0.12	0
bin	-0.1	0
bin	-0.08	0
bin	-0.06	0
bin	-0.04	0
bin	-0.02	0
bin	0	6
bin	0.02	0
bin	0.04	0
bin	0.06	0
bin	0.08	0
bin	0.1	0
bin	0.12	0
bin	0.14	0
bin	0.16	0
bin	0.18	0
bin	0.2	0
bin	0.22	0
bin	0.24	0
bin	0.26	0
bin	0.28	0
bin	0.3	0
bin	0.32	0
bin	0.34	0
bin	0.36	0
bin	0.38	0
bin	0.4	0
bin	0.42	0
bin	0.44	0
bin	0.46	0
bin	0.48	0
bin	0.5	0
statistic LoRaRelayNetworkTest.loRaGW[0].LoRaGWNic.radio symbolErrorRate:histogram
field count 6
field mean 0
field stddev 0
field min 0
field max 0
field sum 0
field sqrsum 0
attr recordingmode histogram
attr source symbolErrorRate(packetSentToUpper)
attr title "Symbol error rate"
bin	-inf	0
bin	-0.5	0
bin	-0.48	0
bin	-0.46	0
bin	-0.44	0
bin	-0.42	0
bin	-0.4	0
bin	-0.38	0
bin	-0.36	0
bin	-0.34	0
bin	-0.32	0
bin	-0.3	0
bin	-0.28	0
bin	-0.26	0
bin	-0.24	0
bin	-0.22	0
bin	-0.2	0
bin	-0.18	0
bin	-0.16	0
bin	-0.14	0
bin	-0.12	0
bin	-0.1	0
bin	-0.08	0
bin	-0.06	0
bin	-0.04	0
bin	-0.02	0
bin	0	6
bin	0.02	0
bin	0.04	0
bin	0.06	0
bin	0.08	0
bin	0.1	0
bin	0.12	0
bin	0.14	0
bin	0.16	0
bin	0.18	0
bin	0.2	0
bin	0.22	0
bin	0.24	0
bin	0.26	0
bin	0.28	0
bin	0.3	0
bin	0.32	0
bin	0.34	0
bin	0.36	0
bin	0.38	0
bin	0.4	0
bin	0.42	0
bin	0.44	0
bin	0.46	0
bin	0.48	0
bin	0.5	0
par LoRaRelayNetworkTest.loRaGW[0].LoRaGWNic typename "\"flora.LoRa.LoRaGWNic\""
par LoRaRelayNetworkTest.loRaGW[0].LoRaGWNic displayStringTextFormat "\"%a (%i)\\n%m\""
par LoRaRelayNetworkTest.loRaGW[0].LoRaGWNic recordPcap false
par LoRaRelayNetworkTest.loRaGW[0].LoRaGWNic numPcapRecorders 0
par LoRaRelayNetworkTest.loRaGW[0].LoRaGWNic interfaceTableModule "\"LoRaRelayNetworkTest.loRaGW[0].interfaceTable\""
par LoRaRelayNetworkTest.loRaGW[0].LoRaGWNic energySourceModule "\"\""
par LoRaRelayNetworkTest.loRaGW[0].LoRaGWNic protocol "\"\""
scalar LoRaRelayNetworkTest.loRaGW[0].LoRaGWNic packetDropInterfaceDown:count 0
attr interpolationmode none
attr recordingmode count
attr source packetDropReasonIsInterfaceDown(packetDropped)
attr title "packet drops: interface down, count"
scalar LoRaRelayNetworkTest.loRaGW[0].LoRaGWNic packetDropInterfaceDown:sum(packetBytes) 0
attr interpolationmode none
attr recordingmode sum(packetBytes)
attr source packetDropReasonIsInterfaceDown(packetDropped)
attr title "packet drops: interface down, sum(packetBytes)"
scalar LoRaRelayNetworkTest.loRaGW[0].LoRaGWNic packetDropNoCarrier:count 0
attr interpolationmode none
attr recordingmode count
attr source packetDropReasonIsNoCarrier(packetDropped)
attr title "packet drops: no carrier, count"
scalar LoRaRelayNetworkTest.loRaGW[0].LoRaGWNic packetDropNoCarrier:sum(packetBytes) 0
attr interpolationmode none
attr recordingmode sum(packetBytes)
attr source packetDropReasonIsNoCarrier(packetDropped)
attr title "packet drops: no carrier, sum(packetBytes)"
par LoRaRelayNetworkTest.loRaGW[0].packetForwarder typename "\"flora.LoRa.PacketForwarder\""
par LoRaRelayNetworkTest.loRaGW[0].packetForwarder localPort 2000
par LoRaRelayNetworkTest.loRaGW[0].packetForwarder destAddresses "\"networkServer\""
par LoRaRelayNetworkTest.loRaGW[0].packetForwarder localAddress "\"\""
par LoRaRelayNetworkTest.loRaGW[0].packetForwarder destPort 1000
scalar LoRaRelayNetworkTest.loRaGW[0].packetForwarder LoRa_GW_DER 1.5
scalar LoRaRelayNetworkTest.loRaGW[0].packetForwarder LoRa_GWPacketReceived:count 3
attr recordingmode count
attr source LoRa_GWPacketReceived
par LoRaRelayNetworkTest.loRaGW[0].eth[0].mac.phys$o.channel typename "\"ned.IdealChannel\""
par LoRaRelayNetworkTest.loRaGW[0].eth[0].phys$i.channel typename "\"ned.IdealChannel\""
par LoRaRelayNetworkTest.loRaGW[0].eth[0].upperLayerIn.channel typename "\"ned.IdealChannel\""
par LoRaRelayNetworkTest.loRaGW[0].eth[0].mac.upperLayerOut.channel typename "\"ned.IdealChannel\""
par LoRaRelayNetworkTest.loRaGW[0].eth[0].queue typename "\"inet.linklayer.ethernet.common.EthernetQueue\""
par LoRaRelayNetworkTest.loRaGW[0].eth[0].queue displayStringTextFormat "\"contains %p pk (%l) pushed %u\\npulled %o removed %r dropped %d\""
par LoRaRelayNetworkTest.loRaGW[0].eth[0].queue packetCapacity 1000
par LoRaRelayNetworkTest.loRaGW[0].eth[0].queue dataCapacity -1b
attr unit b
par LoRaRelayNetworkTest.loRaGW[0].eth[0].queue dropperClass "\"inet::queueing::PacketAtCollectionEndDropper\""
par LoRaRelayNetworkTest.loRaGW[0].eth[0].queue comparatorClass "\"inet::EthernetFrameTypeComparator\""
par LoRaRelayNetworkTest.loRaGW[0].eth[0].queue bufferModule "\"\""
scalar LoRaRelayNetworkTest.loRaGW[0].eth[0].queue queueLength:last 0
attr autoWarmupFilter false
attr interpolationmode sample-hold
attr recordingmode last
attr source "warmup(atomic(constant0(packetPushEnded) + count(packetPushStarted) - count(packetPulled) - count(packetRemoved) - count(packetDropped)))"
attr title "queue length, last"
attr unit pk
scalar LoRaRelayNetworkTest.loRaGW[0].eth[0].queue queueLength:max 0
attr autoWarmupFilter false
attr interpolationmode sample-hold
attr recordingmode max
attr source "warmup(atomic(constant0(packetPushEnded) + count(packetPushStarted) - count(packetPulled) - count(packetRemoved) - count(packetDropped)))"
attr title "queue length, max"
attr unit pk
scalar LoRaRelayNetworkTest.loRaGW[0].eth[0].queue queueLength:timeavg 0
attr autoWarmupFilter false
attr interpolationmode sample-hold
attr recordingmode timeavg
attr source "warmup(atomic(constant0(packetPushEnded) + count(packetPushStarted) - count(packetPulled) - count(packetRemoved) - count(packetDropped)))"
attr title "queue length, timeavg"
attr unit pk
scalar LoRaRelayNetworkTest.loRaGW[0].eth[0].queue queueBitLength:last 0
attr autoWarmupFilter false
attr interpolationmode sample-hold
attr recordingmode last
attr source "warmup(atomic(constant0(packetPushEnded) + sum(packetLength(packetPushStarted)) - sum(packetLength(packetPulled)) - sum(packetLength(packetRemoved)) - sum(packetLength(packetDropped))))"
attr title "queue bit length, last"
attr unit b
scalar LoRaRelayNetworkTest.loRaGW[0].eth[0].queue queueBitLength:max 0
attr autoWarmupFilter false
attr interpolationmode sample-hold
attr recordingmode max
attr source "warmup(atomic(constant0(packetPushEnded) + sum(packetLength(packetPushStarted)) - sum(packetLength(packetPulled)) - sum(packetLength(packetRemoved)) - sum(packetLength(packetDropped))))"
attr title "queue bit length, max"
attr unit b
scalar LoRaRelayNetworkTest.loRaGW[0].eth[0].queue queueBitLength:timeavg 0
attr autoWarmupFilter false
attr interpolationmode sample-hold
attr recordingmode timeavg
attr source "warmup(atomic(constant0(packetPushEnded) + sum(packetLength(packetPushStarted)) - sum(packetLength(packetPulled)) - sum(packetLength(packetRemoved)) - sum(packetLength(packetDropped))))"
attr title "queue bit length, timeavg"
attr unit b
statistic LoRaRelayNetworkTest.loRaGW[0].eth[0].queue queueingTime:histogram
field count 5
field mean 0
field stddev 0
field min 0
field max 0
field sum 0
field sqrsum 0
attr interpolationmode none
attr recordingmode histogram
attr source queueingTime(packetPulled)
attr title "queueing times"
attr unit s
bin	-inf	0
bin	-0.5	0
bin	-0.48	0
bin	-0.46	0
bin	-0.44	0
bin	-0.42	0
bin	-0.4	0
bin	-0.38	0
bin	-0.36	0
bin	-0.34	0
bin	-0.32	0
bin	-0.3	0
bin	-0.28	0
bin	-0.26	0
bin	-0.24	0
bin	-0.22	0
bin	-0.2	0
bin	-0.18	0
bin	-0.16	0
bin	-0.14	0
bin	-0.12	0
bin	-0.1	0
bin	-0.08	0
bin	-0.06	0
bin	-0.04	0
bin	-0.02	0
bin	0	5
bin	0.02	0
bin	0.04	0
bin	0.06	0
bin	0.08	0
bin	0.1	0
bin	0.12	0
bin	0.14	0
bin	0.16	0
bin	0.18	0
bin	0.2	0
bin	0.22	0
bin	0.24	0
bin	0.26	0
bin	0.28	0
bin	0.3	0
bin	0.32	0
bin	0.34	0
bin	0.36	0
bin	0.38	0
bin	0.4	0
bin	0.42	0
bin	0.44	0
bin	0.46	0
bin	0.48	0
bin	0.5	0
scalar LoRaRelayNetworkTest.loRaGW[0].eth[0].queue outgoingPackets:count 5
attr recordingmode count
attr source packetPulled
attr title "outgoing packets, count"
attr unit pk
scalar LoRaRelayNetworkTest.loRaGW[0].eth[0].queue outgoingPacketLengths:sum 2488
attr interpolationmode none
attr recordingmode sum
attr source packetLength(packetPulled)
attr title "outgoing packet lengths, sum"
attr unit b
statistic LoRaRelayNetworkTest.loRaGW[0].eth[0].queue outgoingPacketLengths:histogram
field count 5
field mean 497.6
field stddev 118.30807242112
field min 368
field max 584
field sum 2488
field sqrsum 1294016
attr interpolationmode none
attr recordingmode histogram
attr source packetLength(packetPulled)
attr title "outgoing packet lengths"
attr unit b
bin	-inf	0
bin	310	0
bin	315	0
bin	320	0
bin	325	0
bin	330	0
bin	335	0
bin	340	0
bin	345	0
bin	350	0
bin	355	0
bin	360	0
bin	365	2
bin	370	0
bin	375	0
bin	380	0
bin	385	0
bin	390	0
bin	395	0
bin	400	0
bin	405	0
bin	410	0
bin	415	0
bin	420	0
bin	425	0
bin	430	0
bin	435	0
bin	440	0
bin	445	0
bin	450	0
bin	455	0
bin	460	0
bin	465	0
bin	470	0
bin	475	0
bin	480	0
bin	485	0
bin	490	0
bin	495	0
bin	500	0
bin	505	0
bin	510	0
bin	515	0
bin	520	0
bin	525	0
bin	530	0
bin	535	0
bin	540	0
bin	545	0
bin	550	0
bin	555	0
bin	560	0
bin	565	0
bin	570	0
bin	575	0
bin	580	3
bin	585	0
bin	590	0
bin	595	0
bin	600	0
bin	605	0
bin	610	0
bin	615	0
bin	620	0
bin	625	0
bin	630	0
bin	635	0
bin	640	0
statistic LoRaRelayNetworkTest.loRaGW[0].eth[0].queue flowQueueingTime:histogram
field count 0
field mean -nan
field stddev nan
field min nan
field max nan
field sum 0
field sqrsum 0
attr interpolationmode none
attr recordingmode histogram
attr source queueingTime(demuxFlow(packetPulled))
attr title "flow queueing times"
attr unit s
bin	-inf	0
bin	0	0
bin	1	0
scalar LoRaRelayNetworkTest.loRaGW[0].eth[0].queue incomingPackets:count 5
attr recordingmode count
attr source packetPushStarted
attr title "incoming packets, count"
attr unit pk
scalar LoRaRelayNetworkTest.loRaGW[0].eth[0].queue incomingPacketLengths:sum 2488
attr interpolationmode none
attr recordingmode sum
attr source packetLength(packetPushStarted)
attr title "incoming packet lengths, sum"
attr unit b
statistic LoRaRelayNetworkTest.loRaGW[0].eth[0].queue incomingPacketLengths:histogram
field count 5
field mean 497.6
field stddev 118.30807242112
field min 368
field max 584
field sum 2488
field sqrsum 1294016
attr interpolationmode none
attr recordingmode histogram
attr source packetLength(packetPushStarted)
attr title "incoming packet lengths"
attr unit b
bin	-inf	0
bin	310	0
bin	315	0
bin	320	0
bin	325	0
bin	330	0
bin	335	0
bin	340	0
bin	345	0
bin	350	0
bin	355	0
bin	360	0
bin	365	2
bin	370	0
bin	375	0
bin	380	0
bin	385	0
bin	390	0
bin	395	0
bin	400	0
bin	405	0
bin	410	0
bin	415	0
bin	420	0
bin	425	0
bin	430	0
bin	435	0
bin	440	0
bin	445	0
bin	450	0
bin	455	0
bin	460	0
bin	465	0
bin	470	0
bin	475	0
bin	480	0
bin	485	0
bin	490	0
bin	495	0
bin	500	0
bin	505	0
bin	510	0
bin	515	0
bin	520	0
bin	525	0
bin	530	0
bin	535	0
bin	540	0
bin	545	0
bin	550	0
bin	555	0
bin	560	0
bin	565	0
bin	570	0
bin	575	0
bin	580	3
bin	585	0
bin	590	0
bin	595	0
bin	600	0
bin	605	0
bin	610	0
bin	615	0
bin	620	0
bin	625	0
bin	630	0
bin	635	0
bin	640	0
scalar LoRaRelayNetworkTest.loRaGW[0].eth[0].queue droppedPacketsQueueOverflow:count 0
attr interpolationmode none
attr recordingmode count
attr source packetDropReasonIsQueueOverflow(packetDropped)
attr title "dropped packets: queue overflow, count"
attr unit pk
scalar LoRaRelayNetworkTest.loRaGW[0].eth[0].queue droppedPacketLengthsQueueOverflow:sum 0
attr interpolationmode none
attr recordingmode sum
attr source packetLength(packetDropReasonIsQueueOverflow(packetDropped))
attr title "dropped packet lengths: queue overflow, sum"
attr unit b
par LoRaRelayNetworkTest.loRaGW[0].eth[0].mac typename "\"inet.linklayer.ethernet.basic.EthernetMac\""
par LoRaRelayNetworkTest.loRaGW[0].eth[0].mac interfaceTableModule "\"LoRaRelayNetworkTest.loRaGW[0].interfaceTable\""
par LoRaRelayNetworkTest.loRaGW[0].eth[0].mac displayStringTextFormat "\"rate: %b\\nsent: %s, rcvd: %r\\nqueue: %q, drop: %d\""
par LoRaRelayNetworkTest.loRaGW[0].eth[0].mac sendRawBytes false
par LoRaRelayNetworkTest.loRaGW[0].eth[0].mac promiscuous false
par LoRaRelayNetworkTest.loRaGW[0].eth[0].mac duplexMode true
par LoRaRelayNetworkTest.loRaGW[0].eth[0].mac mtu 1500B
attr unit B
par LoRaRelayNetworkTest.loRaGW[0].eth[0].mac fcsMode "\"declared\""
attr enum declared,computed
par LoRaRelayNetworkTest.loRaGW[0].eth[0].mac stopOperationExtraTime -1s
attr unit s
par LoRaRelayNetworkTest.loRaGW[0].eth[0].mac stopOperationTimeout 2s
attr unit s
scalar LoRaRelayNetworkTest.loRaGW[0].eth[0].mac "simulated time" 2785.9994627411
scalar LoRaRelayNetworkTest.loRaGW[0].eth[0].mac full-duplex 1
scalar LoRaRelayNetworkTest.loRaGW[0].eth[0].mac "frames/sec sent" 0.0017946880704279
scalar LoRaRelayNetworkTest.loRaGW[0].eth[0].mac "frames/sec rcvd" 0.00071787522817116
scalar LoRaRelayNetworkTest.loRaGW[0].eth[0].mac "bits/sec sent" 0.99641081670158
scalar LoRaRelayNetworkTest.loRaGW[0].eth[0].mac "bits/sec rcvd" 0.36755211682364
scalar LoRaRelayNetworkTest.loRaGW[0].eth[0].mac "rx channel idle (%)" 99.99999995865
scalar LoRaRelayNetworkTest.loRaGW[0].eth[0].mac "rx channel utilization (%)" 4.1349613142659e-08
scalar LoRaRelayNetworkTest.loRaGW[0].eth[0].mac rxPausePkUnits:count 0
attr interpolationmode none
attr recordingmode count
attr title "pause units received, count"
scalar LoRaRelayNetworkTest.loRaGW[0].eth[0].mac rxPausePkUnits:sum 0
attr interpolationmode none
attr recordingmode sum
attr title "pause units received, sum"
scalar LoRaRelayNetworkTest.loRaGW[0].eth[0].mac txPausePkUnits:count 0
attr interpolationmode none
attr recordingmode count
attr title "pause units sent, count"
scalar LoRaRelayNetworkTest.loRaGW[0].eth[0].mac txPausePkUnits:sum 0
attr interpolationmode none
attr recordingmode sum
attr title "pause units sent, sum"
scalar LoRaRelayNetworkTest.loRaGW[0].eth[0].mac rxPkOk:count 2
attr interpolationmode none
attr recordingmode count
attr source rxPkOk
attr title "packets received OK, count"
scalar LoRaRelayNetworkTest.loRaGW[0].eth[0].mac rxPkOk:sum(packetBytes) 128
attr interpolationmode none
attr recordingmode sum(packetBytes)
attr source rxPkOk
attr title "packets received OK, sum(packetBytes)"
scalar LoRaRelayNetworkTest.loRaGW[0].eth[0].mac txPk:count 5
attr interpolationmode none
attr recordingmode count
attr source packetSentToLower
attr title "packets transmitted, count"
scalar LoRaRelayNetworkTest.loRaGW[0].eth[0].mac txPk:sum(packetBytes) 347
attr interpolationmode none
attr recordingmode sum(packetBytes)
attr source packetSentToLower
attr title "packets transmitted, sum(packetBytes)"
scalar LoRaRelayNetworkTest.loRaGW[0].eth[0].mac packetReceivedFromUpper:count 5
attr interpolationmode none
attr recordingmode count
attr source packetReceivedFromUpper
attr title "packet bytes from higher layer, count"
scalar LoRaRelayNetworkTest.loRaGW[0].eth[0].mac packetReceivedFromUpper:sum(packetBytes) 311
attr interpolationmode none
attr recordingmode sum(packetBytes)
attr source packetReceivedFromUpper
attr title "packet bytes from higher layer, sum(packetBytes)"
scalar LoRaRelayNetworkTest.loRaGW[0].eth[0].mac passedUpPk:count 2
attr interpolationmode none
attr recordingmode count
attr source packetSentToUpper
attr title "packets passed to higher layer, count"
scalar LoRaRelayNetworkTest.loRaGW[0].eth[0].mac passedUpPk:sum(packetBytes) 128
attr interpolationmode none
attr recordingmode sum(packetBytes)
attr source packetSentToUpper
attr title "packets passed to higher layer, sum(packetBytes)"
scalar LoRaRelayNetworkTest.loRaGW[0].eth[0].mac packetDropIncorrectlyReceived:count 0
attr interpolationmode none
attr recordingmode count
attr source packetDropReasonIsIncorrectlyReceived(packetDropped)
attr title "packet drop: incorrectly received, count"
scalar LoRaRelayNetworkTest.loRaGW[0].eth[0].mac packetDropIncorrectlyReceived:sum(packetBytes) 0
attr interpolationmode none
attr recordingmode sum(packetBytes)
attr source packetDropReasonIsIncorrectlyReceived(packetDropped)
attr title "packet drop: incorrectly received, sum(packetBytes)"
scalar LoRaRelayNetworkTest.loRaGW[0].eth[0].mac packetDropInterfaceDown:count 0
attr interpolationmode none
attr recordingmode count
attr source packetDropReasonIsInterfaceDown(packetDropped)
attr title "packet drop: interface down, count"
scalar LoRaRelayNetworkTest.loRaGW[0].eth[0].mac packetDropInterfaceDown:sum(packetBytes) 0
attr interpolationmode none
attr recordingmode sum(packetBytes)
attr source packetDropReasonIsInterfaceDown(packetDropped)
attr title "packet drop: interface down, sum(packetBytes)"
scalar LoRaRelayNetworkTest.loRaGW[0].eth[0].mac packetDropNotAddressedToUs:count 0
attr interpolationmode none
attr recordingmode count
attr source packetDropReasonIsNotAddressedToUs(packetDropped)
attr title "packet drop: not addressed to us, count"
scalar LoRaRelayNetworkTest.loRaGW[0].eth[0].mac packetDropNotAddressedToUs:sum(packetBytes) 0
attr interpolationmode none
attr recordingmode sum(packetBytes)
attr source packetDropReasonIsNotAddressedToUs(packetDropped)
attr title "packet drop: not addressed to us, sum(packetBytes)"
par LoRaRelayNetworkTest.loRaGW[0].eth[0] typename "\"inet.linklayer.ethernet.EthernetInterface\""
par LoRaRelayNetworkTest.loRaGW[0].eth[0] displayStringTextFormat "\"%a (%i)\\n%m\""
par LoRaRelayNetworkTest.loRaGW[0].eth[0] recordPcap false
par LoRaRelayNetworkTest.loRaGW[0].eth[0] numPcapRecorders 0
par LoRaRelayNetworkTest.loRaGW[0].eth[0] interfaceTableModule "\"LoRaRelayNetworkTest.loRaGW[0].interfaceTable\""
par LoRaRelayNetworkTest.loRaGW[0].eth[0] protocol "\"ethernetmac\""
par LoRaRelayNetworkTest.loRaGW[0].eth[0] address "\"0A-AA-00-00-00-04\""
attr mutable ""
par LoRaRelayNetworkTest.loRaGW[0].eth[0] duplexMode true
par LoRaRelayNetworkTest.loRaGW[0].eth[0] csmacdSupport false
par LoRaRelayNetworkTest.loRaGW[0].eth[0] bitrate 0bps
attr unit bps
par LoRaRelayNetworkTest.loRaGW[0].eth[0] fcsMode "\"declared\""
attr enum declared,computed
scalar LoRaRelayNetworkTest.loRaGW[0].eth[0] packetDropInterfaceDown:count 0
attr interpolationmode none
attr recordingmode count
attr source packetDropReasonIsInterfaceDown(packetDropped)
attr title "packet drops: interface down, count"
scalar LoRaRelayNetworkTest.loRaGW[0].eth[0] packetDropInterfaceDown:sum(packetBytes) 0
attr interpolationmode none
attr recordingmode sum(packetBytes)
attr source packetDropReasonIsInterfaceDown(packetDropped)
attr title "packet drops: interface down, sum(packetBytes)"
scalar LoRaRelayNetworkTest.loRaGW[0].eth[0] packetDropNoCarrier:count 0
attr interpolationmode none
attr recordingmode count
attr source packetDropReasonIsNoCarrier(packetDropped)
attr title "packet drops: no carrier, count"
scalar LoRaRelayNetworkTest.loRaGW[0].eth[0] packetDropNoCarrier:sum(packetBytes) 0
attr interpolationmode none
attr recordingmode sum(packetBytes)
attr source packetDropReasonIsNoCarrier(packetDropped)
attr title "packet drops: no carrier, sum(packetBytes)"
par LoRaRelayNetworkTest.loRaGW[0].udp typename "\"inet.transportlayer.udp.Udp\""
par LoRaRelayNetworkTest.loRaGW[0].udp interfaceTableModule "\"LoRaRelayNetworkTest.loRaGW[0].interfaceTable\""
par LoRaRelayNetworkTest.loRaGW[0].udp icmpModule "\"^.ipv4.icmp\""
par LoRaRelayNetworkTest.loRaGW[0].udp icmpv6Module "\"^.ipv6.icmpv6\""
par LoRaRelayNetworkTest.loRaGW[0].udp crcMode "\"declared\""
attr enum disabled,declared,computed
par LoRaRelayNetworkTest.loRaGW[0].udp defaultMulticastLoop true
scalar LoRaRelayNetworkTest.loRaGW[0].udp packetReceived:count 0
attr interpolationmode none
attr recordingmode count
attr source packetReceived
attr title "packets received, count"
scalar LoRaRelayNetworkTest.loRaGW[0].udp packetReceived:sum(packetBytes) 0
attr interpolationmode none
attr recordingmode sum(packetBytes)
attr source packetReceived
attr title "packets received, sum(packetBytes)"
scalar LoRaRelayNetworkTest.loRaGW[0].udp packetSent:count 3
attr interpolationmode none
attr recordingmode count
attr source packetSent
attr title "packets sent, count"
scalar LoRaRelayNetworkTest.loRaGW[0].udp packetSent:sum(packetBytes) 105
attr interpolationmode none
attr recordingmode sum(packetBytes)
attr source packetSent
attr title "packets sent, sum(packetBytes)"
scalar LoRaRelayNetworkTest.loRaGW[0].udp passedUpPk:count 0
attr interpolationmode none
attr recordingmode count
attr source packetSentToUpper
attr title "packets passed up, count"
scalar LoRaRelayNetworkTest.loRaGW[0].udp droppedPkWrongPort:count 0
attr interpolationmode none
attr recordingmode count
attr source packetDropReasonIsNoPortFound(packetDropped)
attr title "packets dropped (wrong port), count"
scalar LoRaRelayNetworkTest.loRaGW[0].udp droppedPkBadChecksum:count 0
attr interpolationmode none
attr recordingmode count
attr source packetDropReasonIsIncorrectlyReceived(packetDropped)
attr title "packets dropped (checksum error), count"
par LoRaRelayNetworkTest.loRaGW[0].ipv4.transportIn.channel typename "\"ned.IdealChannel\""
par LoRaRelayNetworkTest.loRaGW[0].ipv4.up.out[0].channel typename "\"ned.IdealChannel\""
par LoRaRelayNetworkTest.loRaGW[0].ipv4.lp.out[2].channel typename "\"ned.IdealChannel\""
par LoRaRelayNetworkTest.loRaGW[0].ipv4.ifIn.channel typename "\"ned.IdealChannel\""
par LoRaRelayNetworkTest.loRaGW[0].ipv4.configurator typename "\"inet.networklayer.configurator.ipv4.Ipv4NodeConfigurator\""
par LoRaRelayNetworkTest.loRaGW[0].ipv4.configurator interfaceTableModule "\"LoRaRelayNetworkTest.loRaGW[0].interfaceTable\""
par LoRaRelayNetworkTest.loRaGW[0].ipv4.configurator routingTableModule "\"LoRaRelayNetworkTest.loRaGW[0].ipv4.routingTable\""
par LoRaRelayNetworkTest.loRaGW[0].ipv4.configurator networkConfiguratorModule "\"configurator\""
par LoRaRelayNetworkTest.loRaGW[0].ipv4.configurator configureRoutingTable true
par LoRaRelayNetworkTest.loRaGW[0].ipv4.routingTable typename "\"inet.networklayer.ipv4.Ipv4RoutingTable\""
par LoRaRelayNetworkTest.loRaGW[0].ipv4.routingTable interfaceTableModule "\"LoRaRelayNetworkTest.loRaGW[0].interfaceTable\""
par LoRaRelayNetworkTest.loRaGW[0].ipv4.routingTable routerId "\"auto\""
par LoRaRelayNetworkTest.loRaGW[0].ipv4.routingTable netmaskRoutes "\"*\""
par LoRaRelayNetworkTest.loRaGW[0].ipv4.routingTable forwarding false
par LoRaRelayNetworkTest.loRaGW[0].ipv4.routingTable multicastForwarding false
par LoRaRelayNetworkTest.loRaGW[0].ipv4.routingTable useAdminDist false
par LoRaRelayNetworkTest.loRaGW[0].ipv4.routingTable routingFile "\"\""
par LoRaRelayNetworkTest.loRaGW[0].ipv4.natTable typename "\"inet.networklayer.ipv4.Ipv4NatTable\""
par LoRaRelayNetworkTest.loRaGW[0].ipv4.natTable networkProtocolModule "\"^.ip\""
par LoRaRelayNetworkTest.loRaGW[0].ipv4.natTable config "<config/> at content:1"
par LoRaRelayNetworkTest.loRaGW[0].ipv4.up typename "\"inet.common.MessageDispatcher\""
par LoRaRelayNetworkTest.loRaGW[0].ipv4.up displayStringTextFormat "\"processed %p pk (%l)\""
par LoRaRelayNetworkTest.loRaGW[0].ipv4.up forwardServiceRegistration true
par LoRaRelayNetworkTest.loRaGW[0].ipv4.up forwardProtocolRegistration true
par LoRaRelayNetworkTest.loRaGW[0].ipv4.igmp typename "\"inet.networklayer.ipv4.Igmpv2\""
par LoRaRelayNetworkTest.loRaGW[0].ipv4.igmp interfaceTableModule "\"LoRaRelayNetworkTest.loRaGW[0].interfaceTable\""
par LoRaRelayNetworkTest.loRaGW[0].ipv4.igmp routingTableModule "\"LoRaRelayNetworkTest.loRaGW[0].ipv4.routingTable\""
par LoRaRelayNetworkTest.loRaGW[0].ipv4.igmp crcMode "\"declared\""
attr enum declared,computed
par LoRaRelayNetworkTest.loRaGW[0].ipv4.igmp enabled true
par LoRaRelayNetworkTest.loRaGW[0].ipv4.igmp robustnessVariable 2
par LoRaRelayNetworkTest.loRaGW[0].ipv4.igmp queryInterval 125s
attr unit s
par LoRaRelayNetworkTest.loRaGW[0].ipv4.igmp queryResponseInterval 10s
attr unit s
par LoRaRelayNetworkTest.loRaGW[0].ipv4.igmp groupMembershipInterval 260s
attr unit s
par LoRaRelayNetworkTest.loRaGW[0].ipv4.igmp otherQuerierPresentInterval 255s
attr unit s
par LoRaRelayNetworkTest.loRaGW[0].ipv4.igmp startupQueryInterval 31.25s
attr unit s
par LoRaRelayNetworkTest.loRaGW[0].ipv4.igmp startupQueryCount 2
par LoRaRelayNetworkTest.loRaGW[0].ipv4.igmp lastMemberQueryInterval 1s
attr unit s
par LoRaRelayNetworkTest.loRaGW[0].ipv4.igmp lastMemberQueryCount 2
par LoRaRelayNetworkTest.loRaGW[0].ipv4.igmp unsolicitedReportInterval 10s
attr unit s
par LoRaRelayNetworkTest.loRaGW[0].ipv4.icmp typename "\"inet.networklayer.ipv4.Icmp\""
par LoRaRelayNetworkTest.loRaGW[0].ipv4.icmp interfaceTableModule "\"LoRaRelayNetworkTest.loRaGW[0].interfaceTable\""
par LoRaRelayNetworkTest.loRaGW[0].ipv4.icmp routingTableModule "\"LoRaRelayNetworkTest.loRaGW[0].ipv4.routingTable\""
par LoRaRelayNetworkTest.loRaGW[0].ipv4.icmp crcMode "\"declared\""
attr enum declared,computed
attr mutable ""
par LoRaRelayNetworkTest.loRaGW[0].ipv4.icmp quoteLength 8B
attr mutable ""
attr unit B
par LoRaRelayNetworkTest.loRaGW[0].ipv4.mp typename "\"inet.common.MessageDispatcher\""
par LoRaRelayNetworkTest.loRaGW[0].ipv4.mp displayStringTextFormat "\"processed %p pk (%l)\""
par LoRaRelayNetworkTest.loRaGW[0].ipv4.mp forwardServiceRegistration true
par LoRaRelayNetworkTest.loRaGW[0].ipv4.mp forwardProtocolRegistration true
par LoRaRelayNetworkTest.loRaGW[0].ipv4.ip typename "\"inet.networklayer.ipv4.Ipv4\""
par LoRaRelayNetworkTest.loRaGW[0].ipv4.ip interfaceTableModule "\"LoRaRelayNetworkTest.loRaGW[0].interfaceTable\""
par LoRaRelayNetworkTest.loRaGW[0].ipv4.ip routingTableModule "\"LoRaRelayNetworkTest.loRaGW[0].ipv4.routingTable\""
par LoRaRelayNetworkTest.loRaGW[0].ipv4.ip arpModule "\"LoRaRelayNetworkTest.loRaGW[0].ipv4.arp\""
par LoRaRelayNetworkTest.loRaGW[0].ipv4.ip icmpModule "\"LoRaRelayNetworkTest.loRaGW[0].ipv4.icmp\""
par LoRaRelayNetworkTest.loRaGW[0].ipv4.ip crcMode "\"declared\""
attr enum declared,computed
par LoRaRelayNetworkTest.loRaGW[0].ipv4.ip timeToLive 32
par LoRaRelayNetworkTest.loRaGW[0].ipv4.ip multicastTimeToLive 32
par LoRaRelayNetworkTest.loRaGW[0].ipv4.ip fragmentTimeout 60s
attr unit s
par LoRaRelayNetworkTest.loRaGW[0].ipv4.ip limitedBroadcast false
par LoRaRelayNetworkTest.loRaGW[0].ipv4.ip directBroadcastInterfaces "\"\""
scalar LoRaRelayNetworkTest.loRaGW[0].ipv4.ip packetDropAddressResolutionFailed:count 0
attr interpolationmode none
attr recordingmode count
attr source packetDropReasonIsAddressResolutionFailed(packetDropped)
attr title "packet drop: address resolution failed, count"
scalar LoRaRelayNetworkTest.loRaGW[0].ipv4.ip packetDropAddressResolutionFailed:sum(packetBytes) 0
attr interpolationmode none
attr recordingmode sum(packetBytes)
attr source packetDropReasonIsAddressResolutionFailed(packetDropped)
attr title "packet drop: address resolution failed, sum(packetBytes)"
scalar LoRaRelayNetworkTest.loRaGW[0].ipv4.ip packetDropHopLimitReached:count 0
attr interpolationmode none
attr recordingmode count
attr source packetDropReasonIsHopLimitReached(packetDropped)
attr title "packet drop: hop limit reached, count"
scalar LoRaRelayNetworkTest.loRaGW[0].ipv4.ip packetDropHopLimitReached:sum(packetBytes) 0
attr interpolationmode none
attr recordingmode sum(packetBytes)
attr source packetDropReasonIsHopLimitReached(packetDropped)
attr title "packet drop: hop limit reached, sum(packetBytes)"
scalar LoRaRelayNetworkTest.loRaGW[0].ipv4.ip packetDropForwardingDisabled:count 0
attr interpolationmode none
attr recordingmode count
attr source packetDropReasonIsForwardingDisabled(packetDropped)
attr title "packet drop: forwarding disabled, count"
scalar LoRaRelayNetworkTest.loRaGW[0].ipv4.ip packetDropForwardingDisabled:sum(packetBytes) 0
attr interpolationmode none
attr recordingmode sum(packetBytes)
attr source packetDropReasonIsForwardingDisabled(packetDropped)
attr title "packet drop: forwarding disabled, sum(packetBytes)"
scalar LoRaRelayNetworkTest.loRaGW[0].ipv4.ip packetDropNoInterfaceFound:count 0
attr interpolationmode none
attr recordingmode count
attr source packetDropReasonIsNoInterfaceFound(packetDropped)
attr title "packet drop: no interface found, count"
scalar LoRaRelayNetworkTest.loRaGW[0].ipv4.ip packetDropNoInterfaceFound:sum(packetBytes) 0
attr interpolationmode none
attr recordingmode sum(packetBytes)
attr source packetDropReasonIsNoInterfaceFound(packetDropped)
attr title "packet drop: no interface found, sum(packetBytes)"
scalar LoRaRelayNetworkTest.loRaGW[0].ipv4.ip packetDropNoRouteFound:count 0
attr interpolationmode none
attr recordingmode count
attr source packetDropReasonIsNoRouteFound(packetDropped)
attr title "packet drop: no route found, count"
scalar LoRaRelayNetworkTest.loRaGW[0].ipv4.ip packetDropNoRouteFound:sum(packetBytes) 0
attr interpolationmode none
attr recordingmode sum(packetBytes)
attr source packetDropReasonIsNoRouteFound(packetDropped)
attr title "packet drop: no route found, sum(packetBytes)"
scalar LoRaRelayNetworkTest.loRaGW[0].ipv4.ip packetDropUndefined:count 0
attr interpolationmode none
attr recordingmode count
attr source packetDropReasonIsUndefined(packetDropped)
attr title "packet drop: undefined, count"
scalar LoRaRelayNetworkTest.loRaGW[0].ipv4.ip packetDropUndefined:sum(packetBytes) 0
attr interpolationmode none
attr recordingmode sum(packetBytes)
attr source packetDropReasonIsUndefined(packetDropped)
attr title "packet drop: undefined, sum(packetBytes)"
par LoRaRelayNetworkTest.loRaGW[0].ipv4.arp typename "\"inet.networklayer.arp.ipv4.Arp\""
par LoRaRelayNetworkTest.loRaGW[0].ipv4.arp interfaceTableModule "\"LoRaRelayNetworkTest.loRaGW[0].interfaceTable\""
par LoRaRelayNetworkTest.loRaGW[0].ipv4.arp routingTableModule "\"LoRaRelayNetworkTest.loRaGW[0].ipv4.routingTable\""
par LoRaRelayNetworkTest.loRaGW[0].ipv4.arp retryTimeout 1s
attr unit s
par LoRaRelayNetworkTest.loRaGW[0].ipv4.arp retryCount 3
par LoRaRelayNetworkTest.loRaGW[0].ipv4.arp cacheTimeout 120s
attr unit s
par LoRaRelayNetworkTest.loRaGW[0].ipv4.arp proxyArpInterfaces "\"*\""
scalar LoRaRelayNetworkTest.loRaGW[0].ipv4.arp arpResolutionFailed:count 0
attr recordingmode count
attr title "ARP failed resolutions, count"
scalar LoRaRelayNetworkTest.loRaGW[0].ipv4.arp arpResolutionCompleted:count 2
attr recordingmode count
attr title "ARP completed resolutions, count"
scalar LoRaRelayNetworkTest.loRaGW[0].ipv4.arp arpResolutionInitiated:count 2
attr recordingmode count
attr title "ARP initiated resolutions, count"
scalar LoRaRelayNetworkTest.loRaGW[0].ipv4.arp arpReplySent:count 0
attr recordingmode count
attr source arpReplySent
attr title "ARP replies sent, count"
scalar LoRaRelayNetworkTest.loRaGW[0].ipv4.arp arpReplySent:sum(packetBytes) 0
attr recordingmode sum(packetBytes)
attr source arpReplySent
attr title "ARP replies sent, sum(packetBytes)"
scalar LoRaRelayNetworkTest.loRaGW[0].ipv4.arp arpRequestSent:count 2
attr recordingmode count
attr source arpRequestSent
attr title "ARP request sent, count"
scalar LoRaRelayNetworkTest.loRaGW[0].ipv4.arp arpRequestSent:sum(packetBytes) 56
attr recordingmode sum(packetBytes)
attr source arpRequestSent
attr title "ARP request sent, sum(packetBytes)"
par LoRaRelayNetworkTest.loRaGW[0].ipv4.lp typename "\"inet.common.MessageDispatcher\""
par LoRaRelayNetworkTest.loRaGW[0].ipv4.lp displayStringTextFormat "\"processed %p pk (%l)\""
par LoRaRelayNetworkTest.loRaGW[0].ipv4.lp forwardServiceRegistration true
par LoRaRelayNetworkTest.loRaGW[0].ipv4.lp forwardProtocolRegistration true
par LoRaRelayNetworkTest.loRaGW[0].ipv4 typename "\"inet.networklayer.ipv4.Ipv4NetworkLayer\""
par LoRaRelayNetworkTest.loRaGW[0].ipv4 forwarding false
par LoRaRelayNetworkTest.loRaGW[0].ipv4 multicastForwarding false
par LoRaRelayNetworkTest.loRaGW[0].ipv4 interfaceTableModule "\"LoRaRelayNetworkTest.loRaGW[0].interfaceTable\""
par LoRaRelayNetworkTest.loRaGW[0].ipv4 displayStringTextFormat "\"%i\""
par LoRaRelayNetworkTest.loRaGW[0].routingTable typename "\"inet.networklayer.ipv4.Ipv4RoutingTable\""
par LoRaRelayNetworkTest.loRaGW[0].routingTable interfaceTableModule "\"LoRaRelayNetworkTest.loRaGW[0].interfaceTable\""
par LoRaRelayNetworkTest.loRaGW[0].routingTable routerId "\"auto\""
par LoRaRelayNetworkTest.loRaGW[0].routingTable netmaskRoutes "\"*\""
par LoRaRelayNetworkTest.loRaGW[0].routingTable forwarding true
par LoRaRelayNetworkTest.loRaGW[0].routingTable multicastForwarding false
par LoRaRelayNetworkTest.loRaGW[0].routingTable useAdminDist false
par LoRaRelayNetworkTest.loRaGW[0].routingTable routingFile "\"\""
par LoRaRelayNetworkTest.loRaGW[0].ethernet typename "\"inet.linklayer.ethernet.basic.EthernetEncapsulation\""
par LoRaRelayNetworkTest.loRaGW[0].ethernet registerProtocol true
par LoRaRelayNetworkTest.loRaGW[0].ethernet interfaceTableModule "\"LoRaRelayNetworkTest.loRaGW[0].interfaceTable\""
par LoRaRelayNetworkTest.loRaGW[0].ethernet fcsMode "\"declared\""
attr enum declared,computed
par LoRaRelayNetworkTest.loRaGW[0].ethernet stopOperationExtraTime -1s
attr unit s
par LoRaRelayNetworkTest.loRaGW[0].ethernet stopOperationTimeout 2s
attr unit s
scalar LoRaRelayNetworkTest.loRaGW[0].ethernet pauseSent:count 0
attr recordingmode count
attr title "pause sent, count"
scalar LoRaRelayNetworkTest.loRaGW[0].ethernet pauseSent:sum 0
attr recordingmode sum
attr title "pause sent, sum"
scalar LoRaRelayNetworkTest.loRaGW[0].ethernet decapPk:count 2
attr interpolationmode none
attr recordingmode count
attr source decapPk
attr title "packets decapsulated, count"
scalar LoRaRelayNetworkTest.loRaGW[0].ethernet decapPk:sum(packetBytes) 92
attr interpolationmode none
attr recordingmode sum(packetBytes)
attr source decapPk
attr title "packets decapsulated, sum(packetBytes)"
scalar LoRaRelayNetworkTest.loRaGW[0].ethernet encapPk:count 5
attr interpolationmode none
attr recordingmode count
attr source encapPk
attr title "packets encapsulated, count"
scalar LoRaRelayNetworkTest.loRaGW[0].ethernet encapPk:sum(packetBytes) 221
attr interpolationmode none
attr recordingmode sum(packetBytes)
attr source encapPk
attr title "packets encapsulated, sum(packetBytes)"
par LoRaRelayNetworkTest.loRaGW[0] typename "\"flora.LoraNode.LoRaGW\""
par LoRaRelayNetworkTest.loRaGW[0] numEthInterfaces 0
par LoRaRelayNetworkTest.loRaGW[0] numWlanInterfaces 1
par LoRaRelayNetworkTest.loRaGW[0] hasIpv4 true
par LoRaRelayNetworkTest.loRaGW[0] networkLayerType "\"Ipv4NetworkLayer\""
par LoRaRelayNetworkTest.loRaGW[0] routingTableType "\"Ipv4RoutingTable\""
par LoRaRelayNetworkTest.loRaGW[0] numUdpApps 1
par LoRaRelayNetworkTest.loRaGW[0] hasUdp true
par LoRaRelayNetworkTest.loRaGW[0] udpType "\"\""
par LoRaRelayNetworkTest.loRaRelay[0].interfaceTable typename "\"inet.networklayer.common.InterfaceTable\""
par LoRaRelayNetworkTest.loRaRelay[0].interfaceTable displayAddresses false
par LoRaRelayNetworkTest.loRaRelay[0].mobility typename "\"inet.mobility.static.StationaryMobility\""
[...]
scalar LoRaRelayNetworkTest.nsRouter.eth[0].mac "simulated time" 2785.9994627411
scalar LoRaRelayNetworkTest.nsRouter.eth[0].mac full-duplex 1
scalar LoRaRelayNetworkTest.nsRouter.eth[0].mac "frames/sec sent" 0.0014357504563423
scalar LoRaRelayNetworkTest.nsRouter.eth[0].mac "frames/sec rcvd" 0.00071787522817116
scalar LoRaRelayNetworkTest.nsRouter.eth[0].mac "bits/sec sent" 0.7867912500756
scalar LoRaRelayNetworkTest.nsRouter.eth[0].mac "bits/sec rcvd" 0.36755211682364
scalar LoRaRelayNetworkTest.nsRouter.eth[0].mac "rx channel idle (%)" 99.99999995865
scalar LoRaRelayNetworkTest.nsRouter.eth[0].mac "rx channel utilization (%)" 4.1349613142659e-08
scalar LoRaRelayNetworkTest.nsRouter.eth[0].mac rxPausePkUnits:count 0
attr interpolationmode none
attr recordingmode count
attr title "pause units received, count"
scalar LoRaRelayNetworkTest.nsRouter.eth[0].mac rxPausePkUnits:sum 0
attr interpolationmode none
attr recordingmode sum
attr title "pause units received, sum"
scalar LoRaRelayNetworkTest.nsRouter.eth[0].mac txPausePkUnits:count 0
attr interpolationmode none
attr recordingmode count
attr title "pause units sent, count"
scalar LoRaRelayNetworkTest.nsRouter.eth[0].mac txPausePkUnits:sum 0
attr interpolationmode none
attr recordingmode sum
attr title "pause units sent, sum"
scalar LoRaRelayNetworkTest.nsRouter.eth[0].mac rxPkOk:count 2
attr interpolationmode none
attr recordingmode count
attr source rxPkOk
attr title "packets received OK, count"
scalar LoRaRelayNetworkTest.nsRouter.eth[0].mac rxPkOk:sum(packetBytes) 128
attr interpolationmode none
attr recordingmode sum(packetBytes)
attr source rxPkOk
attr title "packets received OK, sum(packetBytes)"
scalar LoRaRelayNetworkTest.nsRouter.eth[0].mac txPk:count 4
attr interpolationmode none
attr recordingmode count
attr source packetSentToLower
attr title "packets transmitted, count"
scalar LoRaRelayNetworkTest.nsRouter.eth[0].mac txPk:sum(packetBytes) 274
attr interpolationmode none
attr recordingmode sum(packetBytes)
attr source packetSentToLower
attr title "packets transmitted, sum(packetBytes)"
scalar LoRaRelayNetworkTest.nsRouter.eth[0].mac packetReceivedFromUpper:count 5
attr interpolationmode none
attr recordingmode count
attr source packetReceivedFromUpper
attr title "packet bytes from higher layer, count"
scalar LoRaRelayNetworkTest.nsRouter.eth[0].mac packetReceivedFromUpper:sum(packetBytes) 311
attr interpolationmode none
attr recordingmode sum(packetBytes)
attr source packetReceivedFromUpper
attr title "packet bytes from higher layer, sum(packetBytes)"
scalar LoRaRelayNetworkTest.nsRouter.eth[0].mac passedUpPk:count 2
attr interpolationmode none
attr recordingmode count
attr source packetSentToUpper
attr title "packets passed to higher layer, count"
scalar LoRaRelayNetworkTest.nsRouter.eth[0].mac passedUpPk:sum(packetBytes) 128
attr interpolationmode none
attr recordingmode sum(packetBytes)
attr source packetSentToUpper
attr title "packets passed to higher layer, sum(packetBytes)"
scalar LoRaRelayNetworkTest.nsRouter.eth[0].mac packetDropIncorrectlyReceived:count 0
attr interpolationmode none
attr recordingmode count
attr source packetDropReasonIsIncorrectlyReceived(packetDropped)
attr title "packet drop: incorrectly received, count"
scalar LoRaRelayNetworkTest.nsRouter.eth[0].mac packetDropIncorrectlyReceived:sum(packetBytes) 0
attr interpolationmode none
attr recordingmode sum(packetBytes)
attr source packetDropReasonIsIncorrectlyReceived(packetDropped)
attr title "packet drop: incorrectly received, sum(packetBytes)"
scalar LoRaRelayNetworkTest.nsRouter.eth[0].mac packetDropInterfaceDown:count 0
attr interpolationmode none
attr recordingmode count
attr source packetDropReasonIsInterfaceDown(packetDropped)
attr title "packet drop: interface down, count"
scalar LoRaRelayNetworkTest.nsRouter.eth[0].mac packetDropInterfaceDown:sum(packetBytes) 0
attr interpolationmode none
attr recordingmode sum(packetBytes)
attr source packetDropReasonIsInterfaceDown(packetDropped)
attr title "packet drop: interface down, sum(packetBytes)"
scalar LoRaRelayNetworkTest.nsRouter.eth[0].mac packetDropNotAddressedToUs:count 0
attr interpolationmode none
attr recordingmode count
attr source packetDropReasonIsNotAddressedToUs(packetDropped)
attr title "packet drop: not addressed to us, count"
scalar LoRaRelayNetworkTest.nsRouter.eth[0].mac packetDropNotAddressedToUs:sum(packetBytes) 0
attr interpolationmode none
attr recordingmode sum(packetBytes)
attr source packetDropReasonIsNotAddressedToUs(packetDropped)
attr title "packet drop: not addressed to us, sum(packetBytes)"
par LoRaRelayNetworkTest.nsRouter.eth[0] typename "\"inet.linklayer.ethernet.EthernetInterface\""
par LoRaRelayNetworkTest.nsRouter.eth[0] displayStringTextFormat "\"%a (%i)\\n%m\""
par LoRaRelayNetworkTest.nsRouter.eth[0] recordPcap false
par LoRaRelayNetworkTest.nsRouter.eth[0] numPcapRecorders 0
par LoRaRelayNetworkTest.nsRouter.eth[0] interfaceTableModule "\"LoRaRelayNetworkTest.nsRouter.interfaceTable\""
par LoRaRelayNetworkTest.nsRouter.eth[0] protocol "\"ethernetmac\""
par LoRaRelayNetworkTest.nsRouter.eth[0] address "\"0A-AA-00-00-00-07\""
attr mutable ""
par LoRaRelayNetworkTest.nsRouter.eth[0] duplexMode true
par LoRaRelayNetworkTest.nsRouter.eth[0] csmacdSupport false
par LoRaRelayNetworkTest.nsRouter.eth[0] bitrate 0bps
attr unit bps
par LoRaRelayNetworkTest.nsRouter.eth[0] fcsMode "\"declared\""
attr enum declared,computed
scalar LoRaRelayNetworkTest.nsRouter.eth[0] packetDropInterfaceDown:count 0
attr interpolationmode none
attr recordingmode count
attr source packetDropReasonIsInterfaceDown(packetDropped)
attr title "packet drops: interface down, count"
scalar LoRaRelayNetworkTest.nsRouter.eth[0] packetDropInterfaceDown:sum(packetBytes) 0
attr interpolationmode none
attr recordingmode sum(packetBytes)
attr source packetDropReasonIsInterfaceDown(packetDropped)
attr title "packet drops: interface down, sum(packetBytes)"
scalar LoRaRelayNetworkTest.nsRouter.eth[0] packetDropNoCarrier:count 0
attr interpolationmode none
attr recordingmode count
attr source packetDropReasonIsNoCarrier(packetDropped)
attr title "packet drops: no carrier, count"
scalar LoRaRelayNetworkTest.nsRouter.eth[0] packetDropNoCarrier:sum(packetBytes) 0
attr interpolationmode none
attr recordingmode sum(packetBytes)
attr source packetDropReasonIsNoCarrier(packetDropped)
attr title "packet drops: no carrier, sum(packetBytes)"
par LoRaRelayNetworkTest.nsRouter.ipv4.transportIn.channel typename "\"ned.IdealChannel\""
par LoRaRelayNetworkTest.nsRouter.ipv4.up.out[0].channel typename "\"ned.IdealChannel\""
par LoRaRelayNetworkTest.nsRouter.ipv4.lp.out[2].channel typename "\"ned.IdealChannel\""
par LoRaRelayNetworkTest.nsRouter.ipv4.ifIn.channel typename "\"ned.IdealChannel\""
par LoRaRelayNetworkTest.nsRouter.ipv4.configurator typename "\"inet.networklayer.configurator.ipv4.Ipv4NodeConfigurator\""
par LoRaRelayNetworkTest.nsRouter.ipv4.configurator interfaceTableModule "\"LoRaRelayNetworkTest.nsRouter.interfaceTable\""
par LoRaRelayNetworkTest.nsRouter.ipv4.configurator routingTableModule "\"LoRaRelayNetworkTest.nsRouter.ipv4.routingTable\""
par LoRaRelayNetworkTest.nsRouter.ipv4.configurator networkConfiguratorModule "\"configurator\""
par LoRaRelayNetworkTest.nsRouter.ipv4.configurator configureRoutingTable true
par LoRaRelayNetworkTest.nsRouter.ipv4.routingTable typename "\"inet.networklayer.ipv4.Ipv4RoutingTable\""
par LoRaRelayNetworkTest.nsRouter.ipv4.routingTable interfaceTableModule "\"LoRaRelayNetworkTest.nsRouter.interfaceTable\""
par LoRaRelayNetworkTest.nsRouter.ipv4.routingTable routerId "\"auto\""
par LoRaRelayNetworkTest.nsRouter.ipv4.routingTable netmaskRoutes "\"*\""
par LoRaRelayNetworkTest.nsRouter.ipv4.routingTable forwarding true
par LoRaRelayNetworkTest.nsRouter.ipv4.routingTable multicastForwarding false
par LoRaRelayNetworkTest.nsRouter.ipv4.routingTable useAdminDist false
par LoRaRelayNetworkTest.nsRouter.ipv4.routingTable routingFile "\"\""
par LoRaRelayNetworkTest.nsRouter.ipv4.natTable typename "\"inet.networklayer.ipv4.Ipv4NatTable\""
par LoRaRelayNetworkTest.nsRouter.ipv4.natTable networkProtocolModule "\"^.ip\""
par LoRaRelayNetworkTest.nsRouter.ipv4.natTable config "<config/> at content:1"
par LoRaRelayNetworkTest.nsRouter.ipv4.up typename "\"inet.common.MessageDispatcher\""
par LoRaRelayNetworkTest.nsRouter.ipv4.up displayStringTextFormat "\"processed %p pk (%l)\""
par LoRaRelayNetworkTest.nsRouter.ipv4.up forwardServiceRegistration true
par LoRaRelayNetworkTest.nsRouter.ipv4.up forwardProtocolRegistration true
par LoRaRelayNetworkTest.nsRouter.ipv4.igmp typename "\"inet.networklayer.ipv4.Igmpv2\""
par LoRaRelayNetworkTest.nsRouter.ipv4.igmp interfaceTableModule "\"LoRaRelayNetworkTest.nsRouter.interfaceTable\""
par LoRaRelayNetworkTest.nsRouter.ipv4.igmp routingTableModule "\"LoRaRelayNetworkTest.nsRouter.ipv4.routingTable\""
par LoRaRelayNetworkTest.nsRouter.ipv4.igmp crcMode "\"declared\""
attr enum declared,computed
par LoRaRelayNetworkTest.nsRouter.ipv4.igmp enabled true
par LoRaRelayNetworkTest.nsRouter.ipv4.igmp robustnessVariable 2
par LoRaRelayNetworkTest.nsRouter.ipv4.igmp queryInterval 125s
attr unit s
par LoRaRelayNetworkTest.nsRouter.ipv4.igmp queryResponseInterval 10s
attr unit s
par LoRaRelayNetworkTest.nsRouter.ipv4.igmp groupMembershipInterval 260s
attr unit s
par LoRaRelayNetworkTest.nsRouter.ipv4.igmp otherQuerierPresentInterval 255s
attr unit s
par LoRaRelayNetworkTest.nsRouter.ipv4.igmp startupQueryInterval 31.25s
attr unit s
par LoRaRelayNetworkTest.nsRouter.ipv4.igmp startupQueryCount 2
par LoRaRelayNetworkTest.nsRouter.ipv4.igmp lastMemberQueryInterval 1s
attr unit s
par LoRaRelayNetworkTest.nsRouter.ipv4.igmp lastMemberQueryCount 2
par LoRaRelayNetworkTest.nsRouter.ipv4.igmp unsolicitedReportInterval 10s
attr unit s
par LoRaRelayNetworkTest.nsRouter.ipv4.icmp typename "\"inet.networklayer.ipv4.Icmp\""
par LoRaRelayNetworkTest.nsRouter.ipv4.icmp interfaceTableModule "\"LoRaRelayNetworkTest.nsRouter.interfaceTable\""
par LoRaRelayNetworkTest.nsRouter.ipv4.icmp routingTableModule "\"LoRaRelayNetworkTest.nsRouter.ipv4.routingTable\""
par LoRaRelayNetworkTest.nsRouter.ipv4.icmp crcMode "\"declared\""
attr enum declared,computed
attr mutable ""
par LoRaRelayNetworkTest.nsRouter.ipv4.icmp quoteLength 8B
attr mutable ""
attr unit B
par LoRaRelayNetworkTest.nsRouter.ipv4.mp typename "\"inet.common.MessageDispatcher\""
par LoRaRelayNetworkTest.nsRouter.ipv4.mp displayStringTextFormat "\"processed %p pk (%l)\""
par LoRaRelayNetworkTest.nsRouter.ipv4.mp forwardServiceRegistration true
par LoRaRelayNetworkTest.nsRouter.ipv4.mp forwardProtocolRegistration true
par LoRaRelayNetworkTest.nsRouter.ipv4.ip typename "\"inet.networklayer.ipv4.Ipv4\""
par LoRaRelayNetworkTest.nsRouter.ipv4.ip interfaceTableModule "\"LoRaRelayNetworkTest.nsRouter.interfaceTable\""
par LoRaRelayNetworkTest.nsRouter.ipv4.ip routingTableModule "\"LoRaRelayNetworkTest.nsRouter.ipv4.routingTable\""
par LoRaRelayNetworkTest.nsRouter.ipv4.ip arpModule "\"LoRaRelayNetworkTest.nsRouter.ipv4.arp\""
par LoRaRelayNetworkTest.nsRouter.ipv4.ip icmpModule "\"LoRaRelayNetworkTest.nsRouter.ipv4.icmp\""
par LoRaRelayNetworkTest.nsRouter.ipv4.ip crcMode "\"declared\""
attr enum declared,computed
par LoRaRelayNetworkTest.nsRouter.ipv4.ip timeToLive 32
par LoRaRelayNetworkTest.nsRouter.ipv4.ip multicastTimeToLive 32
par LoRaRelayNetworkTest.nsRouter.ipv4.ip fragmentTimeout 60s
attr unit s
par LoRaRelayNetworkTest.nsRouter.ipv4.ip limitedBroadcast false
par LoRaRelayNetworkTest.nsRouter.ipv4.ip directBroadcastInterfaces "\"\""
scalar LoRaRelayNetworkTest.nsRouter.ipv4.ip packetDropAddressResolutionFailed:count 0
attr interpolationmode none
attr recordingmode count
attr source packetDropReasonIsAddressResolutionFailed(packetDropped)
attr title "packet drop: address resolution failed, count"
scalar LoRaRelayNetworkTest.nsRouter.ipv4.ip packetDropAddressResolutionFailed:sum(packetBytes) 0
attr interpolationmode none
attr recordingmode sum(packetBytes)
attr source packetDropReasonIsAddressResolutionFailed(packetDropped)
attr title "packet drop: address resolution failed, sum(packetBytes)"
scalar LoRaRelayNetworkTest.nsRouter.ipv4.ip packetDropHopLimitReached:count 0
attr interpolationmode none
attr recordingmode count
attr source packetDropReasonIsHopLimitReached(packetDropped)
attr title "packet drop: hop limit reached, count"
scalar LoRaRelayNetworkTest.nsRouter.ipv4.ip packetDropHopLimitReached:sum(packetBytes) 0
attr interpolationmode none
attr recordingmode sum(packetBytes)
attr source packetDropReasonIsHopLimitReached(packetDropped)
attr title "packet drop: hop limit reached, sum(packetBytes)"
scalar LoRaRelayNetworkTest.nsRouter.ipv4.ip packetDropForwardingDisabled:count 0
attr interpolationmode none
attr recordingmode count
attr source packetDropReasonIsForwardingDisabled(packetDropped)
attr title "packet drop: forwarding disabled, count"
scalar LoRaRelayNetworkTest.nsRouter.ipv4.ip packetDropForwardingDisabled:sum(packetBytes) 0
attr interpolationmode none
attr recordingmode sum(packetBytes)
attr source packetDropReasonIsForwardingDisabled(packetDropped)
attr title "packet drop: forwarding disabled, sum(packetBytes)"
scalar LoRaRelayNetworkTest.nsRouter.ipv4.ip packetDropNoInterfaceFound:count 0
attr interpolationmode none
attr recordingmode count
attr source packetDropReasonIsNoInterfaceFound(packetDropped)
attr title "packet drop: no interface found, count"
scalar LoRaRelayNetworkTest.nsRouter.ipv4.ip packetDropNoInterfaceFound:sum(packetBytes) 0
attr interpolationmode none
attr recordingmode sum(packetBytes)
attr source packetDropReasonIsNoInterfaceFound(packetDropped)
attr title "packet drop: no interface found, sum(packetBytes)"
scalar LoRaRelayNetworkTest.nsRouter.ipv4.ip packetDropNoRouteFound:count 0
attr interpolationmode none
attr recordingmode count
attr source packetDropReasonIsNoRouteFound(packetDropped)
attr title "packet drop: no route found, count"
scalar LoRaRelayNetworkTest.nsRouter.ipv4.ip packetDropNoRouteFound:sum(packetBytes) 0
attr interpolationmode none
attr recordingmode sum(packetBytes)
attr source packetDropReasonIsNoRouteFound(packetDropped)
attr title "packet drop: no route found, sum(packetBytes)"
scalar LoRaRelayNetworkTest.nsRouter.ipv4.ip packetDropUndefined:count 0
attr interpolationmode none
attr recordingmode count
attr source packetDropReasonIsUndefined(packetDropped)
attr title "packet drop: undefined, count"
scalar LoRaRelayNetworkTest.nsRouter.ipv4.ip packetDropUndefined:sum(packetBytes) 0
attr interpolationmode none
attr recordingmode sum(packetBytes)
attr source packetDropReasonIsUndefined(packetDropped)
attr title "packet drop: undefined, sum(packetBytes)"
par LoRaRelayNetworkTest.nsRouter.ipv4.arp typename "\"inet.networklayer.arp.ipv4.Arp\""
par LoRaRelayNetworkTest.nsRouter.ipv4.arp interfaceTableModule "\"LoRaRelayNetworkTest.nsRouter.interfaceTable\""
par LoRaRelayNetworkTest.nsRouter.ipv4.arp routingTableModule "\"LoRaRelayNetworkTest.nsRouter.ipv4.routingTable\""
par LoRaRelayNetworkTest.nsRouter.ipv4.arp retryTimeout 1s
attr unit s
par LoRaRelayNetworkTest.nsRouter.ipv4.arp retryCount 3
par LoRaRelayNetworkTest.nsRouter.ipv4.arp cacheTimeout 120s
attr unit s
par LoRaRelayNetworkTest.nsRouter.ipv4.arp proxyArpInterfaces "\"*\""
scalar LoRaRelayNetworkTest.nsRouter.ipv4.arp arpResolutionFailed:count 0
attr recordingmode count
attr title "ARP failed resolutions, count"
scalar LoRaRelayNetworkTest.nsRouter.ipv4.arp arpResolutionCompleted:count 2
attr recordingmode count
attr title "ARP completed resolutions, count"
scalar LoRaRelayNetworkTest.nsRouter.ipv4.arp arpResolutionInitiated:count 2
attr recordingmode count
attr title "ARP initiated resolutions, count"
scalar LoRaRelayNetworkTest.nsRouter.ipv4.arp arpReplySent:count 0
attr recordingmode count
attr source arpReplySent
attr title "ARP replies sent, count"
scalar LoRaRelayNetworkTest.nsRouter.ipv4.arp arpReplySent:sum(packetBytes) 0
attr recordingmode sum(packetBytes)
attr source arpReplySent
attr title "ARP replies sent, sum(packetBytes)"
scalar LoRaRelayNetworkTest.nsRouter.ipv4.arp arpRequestSent:count 2
attr recordingmode count
attr source arpRequestSent
attr title "ARP request sent, count"
scalar LoRaRelayNetworkTest.nsRouter.ipv4.arp arpRequestSent:sum(packetBytes) 56
attr recordingmode sum(packetBytes)
attr source arpRequestSent
attr title "ARP request sent, sum(packetBytes)"
par LoRaRelayNetworkTest.nsRouter.ipv4.lp typename "\"inet.common.MessageDispatcher\""
par LoRaRelayNetworkTest.nsRouter.ipv4.lp displayStringTextFormat "\"processed %p pk (%l)\""
par LoRaRelayNetworkTest.nsRouter.ipv4.lp forwardServiceRegistration true
par LoRaRelayNetworkTest.nsRouter.ipv4.lp forwardProtocolRegistration true
par LoRaRelayNetworkTest.nsRouter.ipv4 typename "\"inet.networklayer.ipv4.Ipv4NetworkLayer\""
par LoRaRelayNetworkTest.nsRouter.ipv4 forwarding true
par LoRaRelayNetworkTest.nsRouter.ipv4 multicastForwarding false
par LoRaRelayNetworkTest.nsRouter.ipv4 interfaceTableModule "\"LoRaRelayNetworkTest.nsRouter.interfaceTable\""
par LoRaRelayNetworkTest.nsRouter.ipv4 displayStringTextFormat "\"%i\""
par LoRaRelayNetworkTest.nsRouter.nl typename "\"inet.common.MessageDispatcher\""
par LoRaRelayNetworkTest.nsRouter.nl displayStringTextFormat "\"processed %p pk (%l)\""
par LoRaRelayNetworkTest.nsRouter.nl forwardServiceRegistration true
par LoRaRelayNetworkTest.nsRouter.nl forwardProtocolRegistration true
par LoRaRelayNetworkTest.nsRouter.tn typename "\"inet.common.MessageDispatcher\""
par LoRaRelayNetworkTest.nsRouter.tn displayStringTextFormat "\"processed %p pk (%l)\""
par LoRaRelayNetworkTest.nsRouter.tn forwardServiceRegistration true
par LoRaRelayNetworkTest.nsRouter.tn forwardProtocolRegistration true
par LoRaRelayNetworkTest.nsRouter.at typename "\"inet.common.MessageDispatcher\""
par LoRaRelayNetworkTest.nsRouter.at displayStringTextFormat "\"processed %p pk (%l)\""
par LoRaRelayNetworkTest.nsRouter.at forwardServiceRegistration true
par LoRaRelayNetworkTest.nsRouter.at forwardProtocolRegistration true
par LoRaRelayNetworkTest.nsRouter typename "\"inet.node.inet.Router\""
par LoRaRelayNetworkTest.nsRouter hasStatus false
par LoRaRelayNetworkTest.nsRouter osgModel "\"\""
par LoRaRelayNetworkTest.nsRouter osgModelColor "\"\""
par LoRaRelayNetworkTest.nsRouter canvasImage "\"\""
par LoRaRelayNetworkTest.nsRouter canvasImageColor "\"\""
par LoRaRelayNetworkTest.nsRouter recordPcap false
par LoRaRelayNetworkTest.nsRouter numPcapRecorders 0
par LoRaRelayNetworkTest.nsRouter numLoInterfaces 1
par LoRaRelayNetworkTest.nsRouter numWlanInterfaces 0
par LoRaRelayNetworkTest.nsRouter numEthInterfaces 0
par LoRaRelayNetworkTest.nsRouter numPppInterfaces 0
par LoRaRelayNetworkTest.nsRouter numTunInterfaces 0
par LoRaRelayNetworkTest.nsRouter numVirtInterfaces 0
par LoRaRelayNetworkTest.nsRouter fcsMode "\"declared\""
attr enum declared,computed
par LoRaRelayNetworkTest.nsRouter hasIpv4 true
par LoRaRelayNetworkTest.nsRouter hasIpv6 false
par LoRaRelayNetworkTest.nsRouter hasGn false
par LoRaRelayNetworkTest.nsRouter forwarding true
par LoRaRelayNetworkTest.nsRouter multicastForwarding false
par LoRaRelayNetworkTest.nsRouter hasUdp false
par LoRaRelayNetworkTest.nsRouter hasTcp false
par LoRaRelayNetworkTest.nsRouter hasSctp false
par LoRaRelayNetworkTest.nsRouter numApps 0
par LoRaRelayNetworkTest.nsRouter hasEigrp false
par LoRaRelayNetworkTest.nsRouter hasOspf false
par LoRaRelayNetworkTest.nsRouter hasRip false
par LoRaRelayNetworkTest.nsRouter hasBgp false
par LoRaRelayNetworkTest.nsRouter hasPim false
par LoRaRelayNetworkTest.nsRouter hasDhcp false
par LoRaRelayNetworkTest typename "\"floraext.simulations.LoRaRelayNetworkTest\""
par LoRaRelayNetworkTest numberOfNodes 1
par LoRaRelayNetworkTest numberOfGateways 1
par LoRaRelayNetworkTest numberOfRelays 1
par LoRaRelayNetworkTest networkSizeX 500
par LoRaRelayNetworkTest networkSizeY 500

